Circuit: * C:\Users\hp\Desktop\Power Electronics\course 2\Buckdiode_1.asc

Per .tran options, skipping operating point for transient analysis.
Ignoring empty pin current: Ix(u1:1)
Ignoring empty pin current: Ix(u1:2)
Ignoring empty pin current: Ix(u1:3)
Ignoring empty pin current: Ix(u1:4)
Ignoring empty pin current: Ix(u1:5)
Ignoring empty pin current: Ix(u3:c)
Ignoring empty pin current: Ix(u3:vssin)
Ignoring empty pin current: Ix(u4:vc)
Ignoring empty pin current: Ix(u6:c)
Ignoring empty pin current: Ix(u6:vssin)
Heightened Def Con from 5.015e-07 to 5.0157e-07
Heightened Def Con from 1.00005e-05 to 1.00006e-05
Heightened Def Con from 1.05528e-05 to 1.05529e-05
Heightened Def Con from 2.00005e-05 to 2.00006e-05
Heightened Def Con from 2.10209e-05 to 2.1021e-05
Heightened Def Con from 3.00005e-05 to 3.00006e-05
Heightened Def Con from 3.10209e-05 to 3.1021e-05
Heightened Def Con from 3.99936e-05 to 3.99944e-05
Heightened Def Con from 4.00005e-05 to 4.00005e-05
Heightened Def Con from 4.10181e-05 to 4.10182e-05
Heightened Def Con from 5.00005e-05 to 5.00006e-05
Heightened Def Con from 5.1021e-05 to 5.10211e-05
Heightened Def Con from 5.99935e-05 to 5.99944e-05
Heightened Def Con from 6.00005e-05 to 6.00006e-05
Heightened Def Con from 6.10206e-05 to 6.10207e-05
Heightened Def Con from 7.00005e-05 to 7.00005e-05
Heightened Def Con from 7.0001e-05 to 7.00021e-05
Heightened Def Con from 7.10208e-05 to 7.1021e-05
Heightened Def Con from 7.99935e-05 to 7.99944e-05
Heightened Def Con from 8.00005e-05 to 8.00006e-05
Heightened Def Con from 8.10209e-05 to 8.10211e-05
Heightened Def Con from 8.99935e-05 to 8.99945e-05
Heightened Def Con from 9.00005e-05 to 9.00006e-05
Heightened Def Con from 9.10181e-05 to 9.10182e-05
Heightened Def Con from 9.99935e-05 to 9.99944e-05
Heightened Def Con from 0.0001 to 0.0001
Heightened Def Con from 0.0001 to 0.000100001
Heightened Def Con from 0.000101021 to 0.000101021
Heightened Def Con from 0.000109994 to 0.000109994
Heightened Def Con from 0.00011 to 0.000110001
Heightened Def Con from 0.000110001 to 0.000110002
Heightened Def Con from 0.000111021 to 0.000111021
Heightened Def Con from 0.000119993 to 0.000119994
Heightened Def Con from 0.00012 to 0.000120001
Heightened Def Con from 0.000120001 to 0.000120002
Heightened Def Con from 0.000121021 to 0.000121021
Heightened Def Con from 0.000129994 to 0.000129994
Heightened Def Con from 0.00013 to 0.000130001
Heightened Def Con from 0.000131021 to 0.000131021
Heightened Def Con from 0.000139992 to 0.000139994
Heightened Def Con from 0.00014 to 0.000140001
Heightened Def Con from 0.000141021 to 0.000141021
Heightened Def Con from 0.000149994 to 0.000149994
Heightened Def Con from 0.00015 to 0.000150001
Heightened Def Con from 0.000151021 to 0.000151021
Heightened Def Con from 0.000159994 to 0.000159994
Heightened Def Con from 0.00016 to 0.00016
Heightened Def Con from 0.00016 to 0.000160001
Heightened Def Con from 0.000160001 to 0.000160001
Heightened Def Con from 0.000161021 to 0.000161021
Heightened Def Con from 0.000169993 to 0.000169994
Heightened Def Con from 0.00017 to 0.00017
Heightened Def Con from 0.00017 to 0.000170001
Heightened Def Con from 0.000170001 to 0.000170002
Heightened Def Con from 0.000170031 to 0.000170039
Heightened Def Con from 0.000171021 to 0.000171021
Heightened Def Con from 0.000179993 to 0.000179994
Heightened Def Con from 0.00018 to 0.000180001
Heightened Def Con from 0.000181021 to 0.000181021
Heightened Def Con from 0.000189994 to 0.000189994
Heightened Def Con from 0.00019 to 0.000190001
Heightened Def Con from 0.000190001 to 0.000190002
Heightened Def Con from 0.000191021 to 0.000191021
Heightened Def Con from 0.000199994 to 0.000199994
Heightened Def Con from 0.0002 to 0.000200001
Heightened Def Con from 0.000200001 to 0.000200002
Heightened Def Con from 0.000201021 to 0.000201021
Heightened Def Con from 0.000209994 to 0.000209994
Heightened Def Con from 0.00021 to 0.000210001
Heightened Def Con from 0.000211021 to 0.000211021
Heightened Def Con from 0.00022 to 0.000220001
Heightened Def Con from 0.000221021 to 0.000221021
Heightened Def Con from 0.00023 to 0.000230001
Heightened Def Con from 0.000231021 to 0.000231021
Heightened Def Con from 0.000239994 to 0.000239994
Heightened Def Con from 0.00024 to 0.000240001
Heightened Def Con from 0.000240001 to 0.000240002
Heightened Def Con from 0.000241021 to 0.000241021
Heightened Def Con from 0.000249994 to 0.000249994
Heightened Def Con from 0.00025 to 0.00025
Heightened Def Con from 0.00025 to 0.00025
Heightened Def Con from 0.00025 to 0.000250001
Heightened Def Con from 0.000259994 to 0.000259994
Heightened Def Con from 0.00026 to 0.000260001
Heightened Def Con from 0.000260002 to 0.000260002
Heightened Def Con from 0.000261021 to 0.000261021
Heightened Def Con from 0.00027 to 0.000270001
Heightened Def Con from 0.000270001 to 0.000270001
Heightened Def Con from 0.000271021 to 0.000271021
Heightened Def Con from 0.000279993 to 0.000279994
Heightened Def Con from 0.00028 to 0.000280001
Heightened Def Con from 0.000280001 to 0.000280001
Heightened Def Con from 0.000280001 to 0.000280001
Heightened Def Con from 0.000280001 to 0.000280005
Heightened Def Con from 0.000281021 to 0.000281021
Heightened Def Con from 0.00029 to 0.000290001
Heightened Def Con from 0.000291021 to 0.000291023
Heightened Def Con from 0.000299994 to 0.000299994
Heightened Def Con from 0.0003 to 0.0003
Heightened Def Con from 0.0003 to 0.000300001
Heightened Def Con from 0.000301018 to 0.000301018
Heightened Def Con from 0.000309994 to 0.000309994
Heightened Def Con from 0.00031 to 0.00031
Heightened Def Con from 0.00031 to 0.000310001
Heightened Def Con from 0.000310002 to 0.000310005
Heightened Def Con from 0.000311021 to 0.000311021
Heightened Def Con from 0.000319994 to 0.000319994
Heightened Def Con from 0.00032 to 0.00032
Heightened Def Con from 0.00032 to 0.00032
Heightened Def Con from 0.00032 to 0.000320001
Heightened Def Con from 0.000321021 to 0.000321021
Heightened Def Con from 0.000329994 to 0.000329994
Heightened Def Con from 0.00033 to 0.00033
Heightened Def Con from 0.00033 to 0.00033
Heightened Def Con from 0.00033 to 0.000330001
Heightened Def Con from 0.000330001 to 0.000330001
Heightened Def Con from 0.000331021 to 0.000331022
Heightened Def Con from 0.000339992 to 0.000339994
Heightened Def Con from 0.00034 to 0.000340001
Heightened Def Con from 0.000340001 to 0.000340001
Heightened Def Con from 0.000341021 to 0.000341021
Heightened Def Con from 0.000349994 to 0.000349994
Heightened Def Con from 0.00035 to 0.000350001
Heightened Def Con from 0.000350001 to 0.000350001
Heightened Def Con from 0.000351021 to 0.000351021
Heightened Def Con from 0.000359994 to 0.000359994
Heightened Def Con from 0.00036 to 0.000360001
Heightened Def Con from 0.000360001 to 0.000360002
Heightened Def Con from 0.000361018 to 0.000361018
Heightened Def Con from 0.000369994 to 0.000369994
Heightened Def Con from 0.00037 to 0.000370001
Heightened Def Con from 0.000371021 to 0.000371021
Heightened Def Con from 0.000379994 to 0.000379994
Heightened Def Con from 0.00038 to 0.000380001
Heightened Def Con from 0.000381018 to 0.000381018
Heightened Def Con from 0.000389994 to 0.000389994
Heightened Def Con from 0.00039 to 0.000390001
Heightened Def Con from 0.00039102 to 0.000391021
Heightened Def Con from 0.000399993 to 0.000399994
Heightened Def Con from 0.0004 to 0.0004
Heightened Def Con from 0.0004 to 0.000400001
Heightened Def Con from 0.000401018 to 0.000401018
Heightened Def Con from 0.000409994 to 0.000409994
Heightened Def Con from 0.00041 to 0.000410001
Heightened Def Con from 0.000411021 to 0.000411021
Heightened Def Con from 0.000419994 to 0.000419994
Heightened Def Con from 0.00042 to 0.000420001
Heightened Def Con from 0.000421021 to 0.000421023
Heightened Def Con from 0.000429994 to 0.000429994
Heightened Def Con from 0.00043 to 0.000430001
Heightened Def Con from 0.000430002 to 0.000430005
Heightened Def Con from 0.000431021 to 0.000431021
Heightened Def Con from 0.000439993 to 0.000439994
Heightened Def Con from 0.00044 to 0.000440001
Heightened Def Con from 0.000441021 to 0.000441021
Heightened Def Con from 0.000449994 to 0.000449994
Heightened Def Con from 0.00045 to 0.000450001
Heightened Def Con from 0.000450002 to 0.000450002
Heightened Def Con from 0.000451018 to 0.000451018
Heightened Def Con from 0.000459993 to 0.000459994
Heightened Def Con from 0.00046 to 0.00046
Heightened Def Con from 0.00046 to 0.000460001
Heightened Def Con from 0.000460001 to 0.000460001
Heightened Def Con from 0.000461021 to 0.000461021
Heightened Def Con from 0.000469994 to 0.000469994
Heightened Def Con from 0.00047 to 0.000470001
Heightened Def Con from 0.000471021 to 0.000471021
Heightened Def Con from 0.000479994 to 0.000479994
Heightened Def Con from 0.00048 to 0.000480001
Heightened Def Con from 0.000480001 to 0.000480001
Heightened Def Con from 0.000481021 to 0.000481021
Heightened Def Con from 0.000489994 to 0.000489994
Heightened Def Con from 0.00049 to 0.000490001
Heightened Def Con from 0.000491021 to 0.000491021
Heightened Def Con from 0.000499993 to 0.000499994
Heightened Def Con from 0.0005 to 0.000500001
Heightened Def Con from 0.000501018 to 0.000501018
Heightened Def Con from 0.000509994 to 0.000509994
Heightened Def Con from 0.00051 to 0.000510001
Heightened Def Con from 0.000511018 to 0.000511018
Heightened Def Con from 0.000519994 to 0.000519994
Heightened Def Con from 0.00052 to 0.000520001
Heightened Def Con from 0.000520001 to 0.000520002
Heightened Def Con from 0.000521021 to 0.000521023
Heightened Def Con from 0.000529994 to 0.000529994
Heightened Def Con from 0.00053 to 0.000530001
Heightened Def Con from 0.000531021 to 0.000531021
Heightened Def Con from 0.000539993 to 0.000539994
Heightened Def Con from 0.00054 to 0.000540001
Heightened Def Con from 0.000540001 to 0.000540002
Heightened Def Con from 0.000541021 to 0.000541021
Heightened Def Con from 0.000549993 to 0.000549994
Heightened Def Con from 0.00055 to 0.000550001
Heightened Def Con from 0.000550001 to 0.000550001
Heightened Def Con from 0.000551021 to 0.000551021
Heightened Def Con from 0.000559993 to 0.000559994
Heightened Def Con from 0.00056 to 0.000560001
Heightened Def Con from 0.000560001 to 0.000560001
Heightened Def Con from 0.000561021 to 0.000561021
Heightened Def Con from 0.000561121 to 0.000561124
Heightened Def Con from 0.000569994 to 0.000569994
Heightened Def Con from 0.00057 to 0.000570001
Heightened Def Con from 0.000570001 to 0.000570002
Heightened Def Con from 0.000571021 to 0.000571021
Heightened Def Con from 0.000579994 to 0.000579994
Heightened Def Con from 0.00058 to 0.000580001
Heightened Def Con from 0.000580002 to 0.000580005
Heightened Def Con from 0.000580031 to 0.000580039
Heightened Def Con from 0.000581021 to 0.000581021
Heightened Def Con from 0.000589994 to 0.000589994
Heightened Def Con from 0.00059 to 0.000590001
Heightened Def Con from 0.000591021 to 0.000591021
Heightened Def Con from 0.0006 to 0.000600001
Heightened Def Con from 0.000601021 to 0.000601021
Heightened Def Con from 0.000609993 to 0.000609994
Heightened Def Con from 0.00061 to 0.00061
Heightened Def Con from 0.00061 to 0.00061
Heightened Def Con from 0.00061 to 0.000610001
Heightened Def Con from 0.000610001 to 0.000610002
Heightened Def Con from 0.000611021 to 0.000611021
Heightened Def Con from 0.000619994 to 0.000619994
Heightened Def Con from 0.00062 to 0.000620001
Heightened Def Con from 0.000620001 to 0.000620001
Heightened Def Con from 0.000621021 to 0.000621021
Heightened Def Con from 0.000629994 to 0.000629994
Heightened Def Con from 0.00063 to 0.00063
Heightened Def Con from 0.00063 to 0.00063
Heightened Def Con from 0.00063 to 0.00063
Heightened Def Con from 0.00063 to 0.000630001
Heightened Def Con from 0.000631021 to 0.000631021
Heightened Def Con from 0.000639993 to 0.000639994
Heightened Def Con from 0.00064 to 0.00064
Heightened Def Con from 0.00064 to 0.00064
Heightened Def Con from 0.00064 to 0.000640001
Heightened Def Con from 0.00064003 to 0.000640038
Heightened Def Con from 0.000641021 to 0.000641021
Heightened Def Con from 0.00065 to 0.000650001
Heightened Def Con from 0.000651021 to 0.000651021
Heightened Def Con from 0.000659993 to 0.000659994
Heightened Def Con from 0.00066 to 0.000660001
Heightened Def Con from 0.000661021 to 0.000661021
Heightened Def Con from 0.000669994 to 0.000669994
Heightened Def Con from 0.00067 +to 0.00067
Heightened Def Con from 0.00067 to 0.000670001
Heightened Def Con from 0.000670001 to 0.000670002
Heightened Def Con from 0.000671021 to 0.000671021
Heightened Def Con from 0.000679994 to 0.000679994
Heightened Def Con from 0.00068 to 0.00068
Heightened Def Con from 0.00068 to 0.000680001
Heightened Def Con from 0.000681021 to 0.000681021
Heightened Def Con from 0.000689992 to 0.000689994
Heightened Def Con from 0.00069 to 0.00069
Heightened Def Con from 0.00069 to 0.000690001
Heightened Def Con from 0.000690001 to 0.000690002
Heightened Def Con from 0.000691021 to 0.000691021
Heightened Def Con from 0.000699993 to 0.000699994
Heightened Def Con from 0.0007 to 0.000700001
Heightened Def Con from 0.000701021 to 0.000701021
Heightened Def Con from 0.000709994 to 0.000709994
Heightened Def Con from 0.00071 to 0.000710001
Heightened Def Con from 0.000711021 to 0.000711021
Heightened Def Con from 0.000719994 to 0.000719994
Heightened Def Con from 0.00072 to 0.000720001
Heightened Def Con from 0.000721021 to 0.000721021
Heightened Def Con from 0.000729994 to 0.000729994
Heightened Def Con from 0.00073 to 0.00073
Heightened Def Con from 0.00073 to 0.000730001
Heightened Def Con from 0.000730001 to 0.000730001
Heightened Def Con from 0.000731017 to 0.000731018
Heightened Def Con from 0.000731117 to 0.00073112
Heightened Def Con from 0.00074 to 0.00074
Heightened Def Con from 0.00074 to 0.000740001
Heightened Def Con from 0.000741021 to 0.000741021
Heightened Def Con from 0.000749994 to 0.000749994
Heightened Def Con from 0.00075 to 0.000750001
Heightened Def Con from 0.000751021 to 0.000751021
Heightened Def Con from 0.00076 to 0.00076
Heightened Def Con from 0.00076 to 0.00076
Heightened Def Con from 0.00076 to 0.000760001
Heightened Def Con from 0.000761021 to 0.000761021
Heightened Def Con from 0.000761121 to 0.000761124
Heightened Def Con from 0.00077 to 0.00077
Heightened Def Con from 0.00077 to 0.000770001
Heightened Def Con from 0.000770002 to 0.000770005
Heightened Def Con from 0.000771021 to 0.000771021
Heightened Def Con from 0.000779994 to 0.000779994
Heightened Def Con from 0.00078 to 0.000780001
Heightened Def Con from 0.000780001 to 0.000780002
Heightened Def Con from 0.000780031 to 0.000780039
Heightened Def Con from 0.000781021 to 0.000781021
Heightened Def Con from 0.000789994 to 0.000789994
Heightened Def Con from 0.00079 to 0.000790001
Heightened Def Con from 0.000791021 to 0.000791021
Heightened Def Con from 0.000799994 to 0.000799994
Heightened Def Con from 0.0008 to 0.000800001
Heightened Def Con from 0.000800001 to 0.000800002
Heightened Def Con from 0.000801021 to 0.000801021
Heightened Def Con from 0.00081 to 0.000810001
Heightened Def Con from 0.000811021 to 0.000811021
Heightened Def Con from 0.000819993 to 0.000819994
Heightened Def Con from 0.00082 to 0.000820001
Heightened Def Con from 0.000820001 to 0.000820002
Heightened Def Con from 0.000821021 to 0.000821021
Heightened Def Con from 0.00083 to 0.00083
Heightened Def Con from 0.00083 to 0.000830001
Heightened Def Con from 0.000831021 to 0.000831021
Heightened Def Con from 0.00084 to 0.000840001
Heightened Def Con from 0.000840001 to 0.000840002
Heightened Def Con from 0.000841018 to 0.000841018
Heightened Def Con from 0.000849994 to 0.000849994
Heightened Def Con from 0.00085 to 0.000850001
Heightened Def Con from 0.00085003 to 0.000850038
Heightened Def Con from 0.00085102 to 0.000851021
Heightened Def Con from 0.000859994 to 0.000859994
Heightened Def Con from 0.00086 to 0.00086
Heightened Def Con from 0.00086 to 0.000860001
Heightened Def Con from 0.000861021 to 0.000861021
Heightened Def Con from 0.000869994 to 0.000869994
Heightened Def Con from 0.00087 to 0.000870001
Heightened Def Con from 0.000870001 to 0.000870002
Heightened Def Con from 0.000871021 to 0.000871021
Heightened Def Con from 0.000879994 to 0.000879994
Heightened Def Con from 0.00088 to 0.000880001
Heightened Def Con from 0.000880001 to 0.000880001
Heightened Def Con from 0.000881021 to 0.000881021
Heightened Def Con from 0.000889993 to 0.000889994
Heightened Def Con from 0.00089 to 0.00089
Heightened Def Con from 0.00089 to 0.000890001
Heightened Def Con from 0.000891021 to 0.000891023
Heightened Def Con from 0.000899994 to 0.000899994
Heightened Def Con from 0.0009 to 0.000900001
Heightened Def Con from 0.000900001 to 0.000900002
Heightened Def Con from 0.000901021 to 0.000901021
Heightened Def Con from 0.00091 to 0.000910001
Heightened Def Con from 0.000911018 to 0.00091102
Heightened Def Con from 0.000919993 to 0.000919999
Heightened Def Con from 0.00092 to 0.00092
Heightened Def Con from 0.00092 to 0.00092
Heightened Def Con from 0.00092 to 0.000920001
Heightened Def Con from 0.000920001 to 0.000920002
Heightened Def Con from 0.000921021 to 0.000921021
Heightened Def Con from 0.000929993 to 0.000929994
Heightened Def Con from 0.00093 to 0.000930001
Heightened Def Con from 0.000931021 to 0.000931021
Heightened Def Con from 0.000939994 to 0.000939994
Heightened Def Con from 0.00094 to 0.000940001
Heightened Def Con from 0.000940001 to 0.000940002
Heightened Def Con from 0.000941021 to 0.000941021
Heightened Def Con from 0.000949994 to 0.000949994
Heightened Def Con from 0.00095 to 0.000950001
Heightened Def Con from 0.000950002 to 0.000950002
Heightened Def Con from 0.000950002 to 0.000950002
Heightened Def Con from 0.000950002 to 0.000950005
Heightened Def Con from 0.000951021 to 0.000951021
Heightened Def Con from 0.000959994 to 0.000959994
Heightened Def Con from 0.00096 to 0.000960001
Heightened Def Con from 0.000961021 to 0.000961021
Heightened Def Con from 0.000969994 to 0.000969994
Heightened Def Con from 0.00097 to 0.000970001
Heightened Def Con from 0.000970001 to 0.000970002
Heightened Def Con from 0.000971021 to 0.000971021
Heightened Def Con from 0.00098 to 0.000980001
Heightened Def Con from 0.000980001 to 0.000980002
Heightened Def Con from 0.000980031 to 0.000980039
Heightened Def Con from 0.00098102 to 0.000981021
Heightened Def Con from 0.00099 to 0.000990001
Heightened Def Con from 0.000990001 to 0.000990002
Heightened Def Con from 0.000991021 to 0.000991021
Heightened Def Con from 0.000999994 to 0.000999994
Heightened Def Con from 0.001 to 0.001
Heightened Def Con from 0.00100003 to 0.00100004
Heightened Def Con from 0.00100999 to 0.00100999
Heightened Def Con from 0.00101 to 0.00101
Heightened Def Con from 0.00101 to 0.00101
Heightened Def Con from 0.00101102 to 0.00101102
Heightened Def Con from 0.00102 to 0.00102
Heightened Def Con from 0.00102 to 0.00102
Heightened Def Con from 0.00102 to 0.00102
Heightened Def Con from 0.00102 to 0.00102
Heightened Def Con from 0.00102102 to 0.00102102
Heightened Def Con from 0.00102999 to 0.00102999
Heightened Def Con from 0.00103 to 0.00103
Heightened Def Con from 0.00103102 to 0.00103102
Heightened Def Con from 0.00103999 to 0.00103999
Heightened Def Con from 0.00104 to 0.00104
Heightened Def Con from 0.00104102 to 0.00104102
Heightened Def Con from 0.00104999 to 0.00104999
Heightened Def Con from 0.00105 to 0.00105
Heightened Def Con from 0.00105 to 0.00105
Heightened Def Con from 0.00105 to 0.00105
Heightened Def Con from 0.00105999 to 0.00105999
Heightened Def Con from 0.00106 to 0.00106
Heightened Def Con from 0.00106999 to 0.00106999
Heightened Def Con from 0.00107 to 0.00107
Heightened Def Con from 0.00107102 to 0.00107102
Heightened Def Con from 0.00107999 to 0.00107999
Heightened Def Con from 0.00108 to 0.00108
Heightened Def Con from 0.00108102 to 0.00108102
Heightened Def Con from 0.00108999 to 0.00108999
Heightened Def Con from 0.00109 to 0.00109
Heightened Def Con from 0.00109102 to 0.00109102
Heightened Def Con from 0.00109999 to 0.00109999
Heightened Def Con from 0.0011 to 0.0011
Heightened Def Con from 0.0011 to 0.0011
Heightened Def Con from 0.0011 to 0.0011
Heightened Def Con from 0.00110102 to 0.00110102
Heightened Def Con from 0.00110999 to 0.00110999
Heightened Def Con from 0.00111 to 0.00111
Heightened Def Con from 0.00111 to 0.00111
Heightened Def Con from 0.00111102 to 0.00111102
Heightened Def Con from 0.00111999 to 0.00111999
Heightened Def Con from 0.00112 to 0.00112
Heightened Def Con from 0.00112102 to 0.00112102
Heightened Def Con from 0.00112999 to 0.00112999
Heightened Def Con from 0.00113 to 0.00113
Heightened Def Con from 0.00113102 to 0.00113102
Heightened Def Con from 0.00113999 to 0.00113999
Heightened Def Con from 0.00114 to 0.00114
Heightened Def Con from 0.00114 to 0.00114
Heightened Def Con from 0.00114 to 0.00114
Heightened Def Con from 0.00114102 to 0.00114102
Heightened Def Con from 0.00114999 to 0.00114999
Heightened Def Con from 0.00115 to 0.00115
Heightened Def Con from 0.00115102 to 0.00115102
Heightened Def Con from 0.00115999 to 0.00115999
Heightened Def Con from 0.00116 to 0.00116
Heightened Def Con from 0.00116102 to 0.00116102
Heightened Def Con from 0.00116999 to 0.00116999
Heightened Def Con from 0.00117 to 0.00117
Heightened Def Con from 0.00117 to 0.00117
Heightened Def Con from 0.00117102 to 0.00117102
Heightened Def Con from 0.00117999 to 0.00117999
Heightened Def Con from 0.00118 to 0.00118
Heightened Def Con from 0.00118102 to 0.00118102
Heightened Def Con from 0.00118999 to 0.00118999
Heightened Def Con from 0.00119 to 0.00119
Heightened Def Con from 0.00119 to 0.00119001
Heightened Def Con from 0.00119102 to 0.00119102
Heightened Def Con from 0.00119999 to 0.00119999
Heightened Def Con from 0.0012 to 0.0012
Heightened Def Con from 0.00120102 to 0.00120102
Heightened Def Con from 0.00120999 to 0.00120999
Heightened Def Con from 0.00121 to 0.00121
Heightened Def Con from 0.00121102 to 0.00121102
Heightened Def Con from 0.00122 to 0.00122
Heightened Def Con from 0.00122 to 0.00122
Heightened Def Con from 0.00122102 to 0.00122102
Heightened Def Con from 0.00122999 to 0.00122999
Heightened Def Con from 0.00123 to 0.00123
Heightened Def Con from 0.00123102 to 0.00123102
Heightened Def Con from 0.00123999 to 0.00123999
Heightened Def Con from 0.00124 to 0.00124
Heightened Def Con from 0.00124102 to 0.00124102
Heightened Def Con from 0.00124999 to 0.00124999
Heightened Def Con from 0.00125 to 0.00125
Heightened Def Con from 0.00125003 to 0.00125004
Heightened Def Con from 0.00125102 to 0.00125102
Heightened Def Con from 0.00125999 to 0.00125999
Heightened Def Con from 0.00126 to 0.00126
Heightened Def Con from 0.00126 to 0.00126
Heightened Def Con from 0.00126 to 0.00126
Heightened Def Con from 0.00126003 to 0.00126004
Heightened Def Con from 0.00126102 to 0.00126102
Heightened Def Con from 0.00126999 to 0.00126999
Heightened Def Con from 0.00127 to 0.00127
Heightened Def Con from 0.00127 to 0.00127
Heightened Def Con from 0.00127 to 0.00127
Heightened Def Con from 0.00127102 to 0.00127102
Heightened Def Con from 0.00127999 to 0.00127999
Heightened Def Con from 0.00128 to 0.00128
Heightened Def Con from 0.00128 to 0.00128
Heightened Def Con from 0.00128102 to 0.00128102
Heightened Def Con from 0.00129 to 0.00129
Heightened Def Con from 0.00129 to 0.00129
Heightened Def Con from 0.00129102 to 0.00129102
Heightened Def Con from 0.0013 to 0.0013
Heightened Def Con from 0.00130102 to 0.00130102
Heightened Def Con from 0.00131 to 0.00131
Heightened Def Con from 0.00131 to 0.00131
Heightened Def Con from 0.00131102 to 0.00131102
Heightened Def Con from 0.00131999 to 0.00131999
Heightened Def Con from 0.00132 to 0.00132
Heightened Def Con from 0.00132 to 0.00132
Heightened Def Con from 0.00132102 to 0.00132102
Heightened Def Con from 0.00132999 to 0.00132999
Heightened Def Con from 0.00133 to 0.00133
Heightened Def Con from 0.00133 to 0.00133
Heightened Def Con from 0.00133102 to 0.00133102
Heightened Def Con from 0.00134 to 0.00134
Heightened Def Con from 0.00134102 to 0.00134102
Heightened Def Con from 0.00134999 to 0.00134999
Heightened Def Con from 0.00135 to 0.00135
Heightened Def Con from 0.00135 to 0.00135
Heightened Def Con from 0.00135102 to 0.00135102
Heightened Def Con from 0.00135999 to 0.00135999
Heightened Def Con from 0.00136 to 0.00136
Heightened Def Con from 0.00136 to 0.00136
Heightened Def Con from 0.00136 to 0.00136
Heightened Def Con from 0.00136102 to 0.00136102
Heightened Def Con from 0.00136999 to 0.00136999
Heightened Def Con from 0.00137 to 0.00137
Heightened Def Con from 0.00137102 to 0.00137102
Heightened Def Con from 0.00137999 to 0.00137999
Heightened Def Con from 0.00138 to 0.00138
Heightened Def Con from 0.00138102 to 0.00138102
Heightened Def Con from 0.00138999 to 0.00138999
Heightened Def Con from 0.00139 to 0.00139
Heightened Def Con from 0.00139102 to 0.00139102
Heightened Def Con from 0.00139999 to 0.00139999
Heightened Def Con from 0.0014 to 0.0014
Heightened Def Con from 0.0014 to 0.0014
Heightened Def Con from 0.0014 to 0.0014
Heightened Def Con from 0.0014 to 0.0014
Heightened Def Con from 0.0014 to 0.00140001
Heightened Def Con from 0.00140102 to 0.00140102
Heightened Def Con from 0.00141 to 0.00141
Heightened Def Con from 0.00141102 to 0.00141102
Heightened Def Con from 0.00141999 to 0.00142
Heightened Def Con from 0.00142 to 0.00142
Heightened Def Con from 0.00142 to 0.00142
Heightened Def Con from 0.00142 to 0.00142
Heightened Def Con from 0.00142102 to 0.00142102
Heightened Def Con from 0.00142999 to 0.00142999
Heightened Def Con from 0.00142999 to 0.00142999
Heightened Def Con from 0.00143 to 0.00143
Heightened Def Con from 0.00143102 to 0.00143102
Heightened Def Con from 0.00143999 to 0.00143999
Heightened Def Con from 0.00144 to 0.00144
Heightened Def Con from 0.00144 to 0.00144
Heightened Def Con from 0.00144003 to 0.00144004
Heightened Def Con from 0.00144102 to 0.00144102
Heightened Def Con from 0.00145 to 0.00145
Heightened Def Con from 0.00145 to 0.00145
Heightened Def Con from 0.00145 to 0.00145
Heightened Def Con from 0.00145102 to 0.00145102
Heightened Def Con from 0.00146 to 0.00146
Heightened Def Con from 0.00146102 to 0.00146102
Heightened Def Con from 0.00147 to 0.00147
Heightened Def Con from 0.00147003 to 0.00147004
Heightened Def Con from 0.00147102 to 0.00147102
Heightened Def Con from 0.00147999 to 0.00147999
Heightened Def Con from 0.00148 to 0.00148
Heightened Def Con from 0.00148 to 0.00148
Heightened Def Con from 0.00148102 to 0.00148102
Heightened Def Con from 0.00148999 to 0.00148999
Heightened Def Con from 0.00149 to 0.00149
Heightened Def Con from 0.00149 to 0.00149001
Heightened Def Con from 0.00149102 to 0.00149102
Heightened Def Con from 0.0015 to 0.0015
Heightened Def Con from 0.00150102 to 0.00150102
Heightened Def Con from 0.00150999 to 0.00150999
Heightened Def Con from 0.00151 to 0.00151
Heightened Def Con from 0.00151 to 0.00151
Heightened Def Con from 0.00151 to 0.00151
Heightened Def Con from 0.00151102 to 0.00151102
Heightened Def Con from 0.00151999 to 0.00151999
Heightened Def Con from 0.00152 to 0.00152
Heightened Def Con from 0.00152102 to 0.00152102
Heightened Def Con from 0.00152999 to 0.00152999
Heightened Def Con from 0.00153 to 0.00153
Heightened Def Con from 0.00153003 to 0.00153004
Heightened Def Con from 0.00153102 to 0.00153102
Heightened Def Con from 0.00153999 to 0.00153999
Heightened Def Con from 0.00154 to 0.00154
Heightened Def Con from 0.00154102 to 0.00154102
Heightened Def Con from 0.00154999 to 0.00154999
Heightened Def Con from 0.00155 to 0.00155
Heightened Def Con from 0.00155 to 0.00155
Heightened Def Con from 0.00155102 to 0.00155102
Heightened Def Con from 0.00155999 to 0.00155999
Heightened Def Con from 0.00156 to 0.00156
Heightened Def Con from 0.00156102 to 0.00156102
Heightened Def Con from 0.00156999 to 0.00156999
Heightened Def Con from 0.00157 to 0.00157
Heightened Def Con from 0.00157102 to 0.00157102
Heightened Def Con from 0.00157999 to 0.00157999
Heightened Def Con from 0.00158 to 0.00158
Heightened Def Con from 0.00158 to 0.00158
Heightened Def Con from 0.00158 to 0.00158
Heightened Def Con from 0.00158 to 0.00158
Heightened Def Con from 0.00158102 to 0.00158102
Heightened Def Con from 0.00158999 to 0.00158999
Heightened Def Con from 0.00159 to 0.00159
Heightened Def Con from 0.00159 to 0.00159
Heightened Def Con from 0.00159102 to 0.00159102
Heightened Def Con from 0.00159999 to 0.00159999
Heightened Def Con from 0.0016 to 0.0016
Heightened Def Con from 0.0016 to 0.0016
Heightened Def Con from 0.0016 to 0.0016
Heightened Def Con from 0.0016 to 0.0016
Heightened Def Con from 0.00160003 to 0.00160004
Heightened Def Con from 0.00160102 to 0.00160102
Heightened Def Con from 0.00160999 to 0.00160999
Heightened Def Con from 0.00161 to 0.00161
Heightened Def Con from 0.00161102 to 0.00161102
Heightened Def Con from 0.00161999 to 0.00161999
Heightened Def Con from 0.00162 to 0.00162
Heightened Def Con from 0.00162 to 0.00162
Heightened Def Con from 0.00162102 to 0.00162102
Heightened Def Con from 0.00162999 to 0.00162999
Heightened Def Con from 0.00163 to 0.00163
Heightened Def Con from 0.00163 to 0.00163
Heightened Def Con from 0.00163102 to 0.00163102
Heightened Def Con from 0.00163999 to 0.00163999
Heightened Def Con from 0.00164 to 0.00164
Heightened Def Con from 0.00164102 to 0.00164102
Heightened Def Con from 0.00164999 to 0.00164999
Heightened Def Con from 0.00165 to 0.00165
Heightened Def Con from 0.00165102 to 0.00165102
Heightened Def Con from 0.00165999 to 0.00165999
Heightened Def Con from 0.00166 to 0.00166
Heightened Def Con from 0.00166 to 0.00166
Heightened Def Con from 0.00166102 to 0.00166102
Heightened Def Con from 0.00166999 to 0.00166999
Heightened Def Con from 0.00167 to 0.00167
Heightened Def Con from 0.00167102 to 0.00167102
Heightened Def Con from 0.00167999 to 0.00167999
Heightened Def Con from 0.00168 to 0.00168
Heightened Def Con from 0.00168 to 0.00168
Heightened Def Con from 0.00168102 to 0.00168102
Heightened Def Con from 0.00168999 to 0.00168999
Heightened Def Con from 0.00169 to 0.00169
Heightened Def Con from 0.00169 to 0.00169
Heightened Def Con from 0.00169102 to 0.00169102
Heightened Def Con from 0.00169999 to 0.00169999
Heightened Def Con from 0.0017 to 0.0017
Heightened Def Con from 0.00170999 to 0.00170999
Heightened Def Con from 0.00171 to 0.00171
Heightened Def Con from 0.00171102 to 0.00171102
Heightened Def Con from 0.00171999 to 0.00171999
Heightened Def Con from 0.00172 to 0.00172
Heightened Def Con from 0.00172 to 0.00172
Heightened Def Con from 0.00172102 to 0.00172102
Heightened Def Con from 0.00172999 to 0.00172999
Heightened Def Con from 0.00173 to 0.00173
Heightened Def Con from 0.00173102 to 0.00173102
Heightened Def Con from 0.00173999 to 0.00173999
Heightened Def Con from 0.00174 to 0.00174
Heightened Def Con from 0.00174102 to 0.00174102
Heightened Def Con from 0.00174999 to 0.00174999
Heightened Def Con from 0.00175 to 0.00175
Heightened Def Con from 0.00175 to 0.00175
Heightened Def Con from 0.00175 to 0.00175001
Heightened Def Con from 0.00175003 to 0.00175004
Heightened Def Con from 0.00175102 to 0.00175102
Heightened Def Con from 0.00175999 to 0.00175999
Heightened Def Con from 0.00176 to 0.00176
Heightened Def Con from 0.00176102 to 0.00176102
Heightened Def Con from 0.00176999 to 0.00176999
Heightened Def Con from 0.00177 to 0.00177
Heightened Def Con from 0.00177102 to 0.00177102
Heightened Def Con from 0.00177999 to 0.00177999
Heightened Def Con from 0.00178 to 0.00178
Heightened Def Con from 0.00178003 to 0.00178004
Heightened Def Con from 0.00178102 to 0.00178102
Heightened Def Con from 0.00178999 to 0.00178999
Heightened Def Con from 0.00179 to 0.00179
Heightened Def Con from 0.00179003 to 0.00179004
Heightened Def Con from 0.00179102 to 0.00179102
Heightened Def Con from 0.00179999 to 0.00179999
Heightened Def Con from 0.0018 to 0.0018
Heightened Def Con from 0.0018 to 0.0018
Heightened Def Con from 0.00180102 to 0.00180102
Heightened Def Con from 0.00180999 to 0.00180999
Heightened Def Con from 0.00181 to 0.00181
Heightened Def Con from 0.00181 to 0.00181
Heightened Def Con from 0.00181 to 0.00181
Heightened Def Con from 0.00181102 to 0.00181102
Heightened Def Con from 0.00181999 to 0.00181999
Heightened Def Con from 0.00182 to 0.00182
Heightened Def Con from 0.00182 to 0.00182
Heightened Def Con from 0.00182102 to 0.00182102
Heightened Def Con from 0.00182999 to 0.00182999
Heightened Def Con from 0.00183 to 0.00183
Heightened Def Con from 0.00183 to 0.00183
Heightened Def Con from 0.00183102 to 0.00183102
Heightened Def Con from 0.00183999 to 0.00183999
Heightened Def Con from 0.00184 to 0.00184
Heightened Def Con from 0.00184 to 0.00184
Heightened Def Con from 0.00184003 to 0.00184004
Heightened Def Con from 0.00184102 to 0.00184102
Heightened Def Con from 0.00184999 to 0.00184999
Heightened Def Con from 0.00185 to 0.00185
Heightened Def Con from 0.00185 to 0.00185
Heightened Def Con from 0.00185102 to 0.00185102
Heightened Def Con from 0.00185999 to 0.00185999
Heightened Def Con from 0.00186 to 0.00186
Heightened Def Con from 0.00186102 to 0.00186102
Heightened Def Con from 0.00186999 to 0.00186999
Heightened Def Con from 0.00187 to 0.00187
Heightened Def Con from 0.00187 to 0.00187
Heightened Def Con from 0.00187102 to 0.00187102
Heightened Def Con from 0.00187999 to 0.00187999
Heightened Def Con from 0.00188 to 0.00188
Heightened Def Con from 0.00188999 to 0.00188999
Heightened Def Con from 0.00189 to 0.00189
Heightened Def Con from 0.00189102 to 0.00189102
Heightened Def Con from 0.00189999 to 0.00189999
Heightened Def Con from 0.0019 to 0.0019
Heightened Def Con from 0.0019 to 0.0019
Heightened Def Con from 0.00190102 to 0.00190102
Heightened Def Con from 0.00190999 to 0.00190999
Heightened Def Con from 0.00191 to 0.00191
Heightened Def Con from 0.00191102 to 0.00191102
Heightened Def Con from 0.00191999 to 0.00191999
Heightened Def Con from 0.00192 to 0.00192
Heightened Def Con from 0.00192999 to 0.00192999
Heightened Def Con from 0.00193 to 0.00193
Heightened Def Con from 0.00193003 to 0.00193004
Heightened Def Con from 0.00193102 to 0.00193102
Heightened Def Con from 0.00193999 to 0.00193999
Heightened Def Con from 0.00194 to 0.00194
Heightened Def Con from 0.00194102 to 0.00194102
Heightened Def Con from 0.00194999 to 0.00194999
Heightened Def Con from 0.00195 to 0.00195
Heightened Def Con from 0.00195102 to 0.00195102
Heightened Def Con from 0.00195999 to 0.00195999
Heightened Def Con from 0.00196 to 0.00196
Heightened Def Con from 0.00196 to 0.00196
Heightened Def Con from 0.00196102 to 0.00196102
Heightened Def Con from 0.00196999 to 0.00196999
Heightened Def Con from 0.00197 to 0.00197
Heightened Def Con from 0.00197003 to 0.00197004
Heightened Def Con from 0.00197102 to 0.00197102
Heightened Def Con from 0.00197999 to 0.00197999
Heightened Def Con from 0.00198 to 0.00198
Heightened Def Con from 0.00198999 to 0.00198999
Heightened Def Con from 0.00199 to 0.00199
Heightened Def Con from 0.00199102 to 0.00199102
Heightened Def Con from 0.00199999 to 0.00199999

Date: Tue May 19 19:57:42 2020
Total elapsed time: 21.677 seconds.

tnom = 27
temp = 27
method = modified trap
totiter = 1007845
traniter = 1007845
tranpoints = 257115
accept = 209251
rejected = 48595
matrix size = 56
fillins = 7
solver = Normal
Matrix Compiler1: 3.14 KB object code size  0.8/0.5/[0.3]
Matrix Compiler2: 4.34 KB object code size  0.4/0.7/[0.3]

