Circuit: * C:\Users\hp\Desktop\Power Electronics\course 2\SynchBoost_1.asc

Per .tran options, skipping operating point for transient analysis.
Ignoring empty pin current: Ix(u1:1)
Ignoring empty pin current: Ix(u1:2)
Ignoring empty pin current: Ix(u1:3)
Ignoring empty pin current: Ix(u1:4)
Ignoring empty pin current: Ix(u1:5)
Ignoring empty pin current: Ix(u5:c)
Ignoring empty pin current: Ix(u5:vssin)
Ignoring empty pin current: Ix(u6:c)
Ignoring empty pin current: Ix(u6:vssin)
Ignoring empty pin current: Ix(u8:vc)
Heightened Def Con from 2.01311e-013 to 1.40798e-010
Heightened Def Con from 4.98075e-006 to 4.98089e-006
Heightened Def Con from 9e-006 to 9.0011e-006
Heightened Def Con from 9.95351e-006 to 9.95439e-006
Heightened Def Con from 1.00005e-005 to 1.00005e-005
Heightened Def Con from 1.05003e-005 to 1.05011e-005
Heightened Def Con from 1.49808e-005 to 1.49809e-005
Heightened Def Con from 1.99536e-005 to 1.99542e-005
Heightened Def Con from 2.00005e-005 to 2.00006e-005
Heightened Def Con from 2.00006e-005 to 2.00012e-005
Heightened Def Con from 2.4981e-005 to 2.49811e-005
Heightened Def Con from 3.00005e-005 to 3.00006e-005
Heightened Def Con from 3.00307e-005 to 3.00314e-005
Heightened Def Con from 3.49807e-005 to 3.49809e-005
Heightened Def Con from 3.5011e-005 to 3.50117e-005
Heightened Def Con from 3.9e-005 to 3.90011e-005
Heightened Def Con from 3.99535e-005 to 3.99544e-005
Heightened Def Con from 4.00005e-005 to 4.00005e-005
Heightened Def Con from 4.00307e-005 to 4.00313e-005
Heightened Def Con from 4.05009e-005 to 4.05011e-005
Heightened Def Con from 4.49808e-005 to 4.4981e-005
Heightened Def Con from 4.99535e-005 to 4.99544e-005
Heightened Def Con from 5.00005e-005 to 5.00005e-005
Heightened Def Con from 5.49808e-005 to 5.4981e-005
Heightened Def Con from 5.99535e-005 to 5.99545e-005
Heightened Def Con from 6.00005e-005 to 6.00006e-005
Heightened Def Con from 6.49809e-005 to 6.4981e-005
Heightened Def Con from 7.00005e-005 to 7.00006e-005
Heightened Def Con from 7.0001e-005 to 7.00021e-005
Heightened Def Con from 7.01307e-005 to 7.01357e-005
Heightened Def Con from 7.4981e-005 to 7.49811e-005
Heightened Def Con from 7.90006e-005 to 7.90026e-005
Heightened Def Con from 7.99535e-005 to 7.99545e-005
Heightened Def Con from 8.00005e-005 to 8.00006e-005
Heightened Def Con from 8.4981e-005 to 8.49811e-005
Heightened Def Con from 8.9e-005 to 8.90011e-005
Heightened Def Con from 9.00005e-005 to 9.00005e-005
Heightened Def Con from 9.00307e-005 to 9.00313e-005
Heightened Def Con from 9.49808e-005 to 9.4981e-005
Heightened Def Con from 9.99536e-005 to 9.99543e-005
Heightened Def Con from 0.0001 to 0.000100001
Heightened Def Con from 0.000104981 to 0.000104981
Heightened Def Con from 0.00011 to 0.00011
Heightened Def Con from 0.00011 to 0.000110001
Heightened Def Con from 0.000110131 to 0.000110136
Heightened Def Con from 0.000114981 to 0.000114981
Heightened Def Con from 0.000119 to 0.000119
Heightened Def Con from 0.000119954 to 0.000119954
Heightened Def Con from 0.00012 to 0.000120001
Heightened Def Con from 0.000120131 to 0.000120136
Heightened Def Con from 0.000124981 to 0.000124981
Heightened Def Con from 0.000125011 to 0.000125012
Heightened Def Con from 0.00013 to 0.000130001
Heightened Def Con from 0.000130031 to 0.000130031
Heightened Def Con from 0.00013498 to 0.000134981
Heightened Def Con from 0.00014 to 0.00014
Heightened Def Con from 0.00014 to 0.000140001
Heightened Def Con from 0.000140031 to 0.000140031
Heightened Def Con from 0.000144981 to 0.000144981
Heightened Def Con from 0.00015 to 0.000150001
Heightened Def Con from 0.000150001 to 0.000150002
Heightened Def Con from 0.000154981 to 0.000154981
Heightened Def Con from 0.000158998 to 0.000159001
Heightened Def Con from 0.00016 to 0.000160001
Heightened Def Con from 0.000160001 to 0.000160002
Heightened Def Con from 0.000164981 to 0.000164981
Heightened Def Con from 0.000169953 to 0.000169954
Heightened Def Con from 0.000170001 to 0.000170001
Heightened Def Con from 0.000174981 to 0.000174981
Heightened Def Con from 0.000179954 to 0.000179954
Heightened Def Con from 0.00018 to 0.00018
Heightened Def Con from 0.00018 to 0.000180001
Heightened Def Con from 0.000180001 to 0.000180001
Heightened Def Con from 0.000184981 to 0.000184981
Heightened Def Con from 0.000189954 to 0.000189954
Heightened Def Con from 0.00019 to 0.000190001
Heightened Def Con from 0.000190031 to 0.000190031
Heightened Def Con from 0.000194981 to 0.000194981
Heightened Def Con from 0.000199 to 0.000199001
Heightened Def Con from 0.000199953 to 0.000199954
Heightened Def Con from 0.0002 to 0.000200001
Heightened Def Con from 0.000204981 to 0.000204981
Heightened Def Con from 0.000205081 to 0.000205084
Heightened Def Con from 0.000209954 to 0.000209955
Heightened Def Con from 0.00021 to 0.000210001
Heightened Def Con from 0.000210001 to 0.000210001
Heightened Def Con from 0.000210031 to 0.000210031
Heightened Def Con from 0.000214981 to 0.000214981
Heightened Def Con from 0.000218999 to 0.000219002
Heightened Def Con from 0.000219954 to 0.000219954
Heightened Def Con from 0.00022 to 0.000220001
Heightened Def Con from 0.000220001 to 0.000220002
Heightened Def Con from 0.000220031 to 0.000220031
Heightened Def Con from 0.000224981 to 0.000224981
Heightened Def Con from 0.00023 to 0.00023
Heightened Def Con from 0.00023 to 0.000230001
Heightened Def Con from 0.000234981 to 0.000234981
Heightened Def Con from 0.000239954 to 0.000239954
Heightened Def Con from 0.00024 to 0.000240001
Heightened Def Con from 0.000244981 to 0.000244981
Heightened Def Con from 0.00025 to 0.000250001
Heightened Def Con from 0.000254981 to 0.000254981
Heightened Def Con from 0.00026 to 0.000260001
Heightened Def Con from 0.000260001 to 0.000260002
Heightened Def Con from 0.000264981 to 0.000264981
Heightened Def Con from 0.000269953 to 0.000269954
Heightened Def Con from 0.00027 to 0.00027
Heightened Def Con from 0.00027 to 0.000270001
Heightened Def Con from 0.000274981 to 0.000274981
Heightened Def Con from 0.000279954 to 0.000279954
Heightened Def Con from 0.00028 to 0.000280001
Heightened Def Con from 0.00028498 to 0.00028498
Heightened Def Con from 0.000289953 to 0.000289954
Heightened Def Con from 0.000289999 to 0.00029
Heightened Def Con from 0.00029 to 0.00029
Heightened Def Con from 0.00029 to 0.000290001
Heightened Def Con from 0.000290001 to 0.000290001
Heightened Def Con from 0.000290031 to 0.000290031
Heightened Def Con from 0.000294981 to 0.000294981
Heightened Def Con from 0.000299953 to 0.000299954
Heightened Def Con from 0.0003 to 0.000300001
Heightened Def Con from 0.000300501 to 0.000300504
Heightened Def Con from 0.000304981 to 0.000304981
Heightened Def Con from 0.000309954 to 0.000309954
Heightened Def Con from 0.00031 to 0.000310001
Heightened Def Con from 0.000310031 to 0.000310032
Heightened Def Con from 0.000310501 to 0.000310504
Heightened Def Con from 0.000314981 to 0.000314981
Heightened Def Con from 0.00032 to 0.000320001
Heightened Def Con from 0.000320031 to 0.000320031
Heightened Def Con from 0.000324981 to 0.000324981
Heightened Def Con from 0.000329954 to 0.000329954
Heightened Def Con from 0.00033 to 0.000330001
Heightened Def Con from 0.000330031 to 0.000330031
Heightened Def Con from 0.000334981 to 0.000334981
Heightened Def Con from 0.000339954 to 0.000339954
Heightened Def Con from 0.00034 to 0.000340001
Heightened Def Con from 0.000344981 to 0.000344981
Heightened Def Con from 0.000345011 to 0.000345012
Heightened Def Con from 0.000349953 to 0.000349954
Heightened Def Con from 0.00035 to 0.000350001
Heightened Def Con from 0.000354981 to 0.000354981
Heightened Def Con from 0.000359954 to 0.000359954
Heightened Def Con from 0.00036 to 0.000360001
Heightened Def Con from 0.000360002 to 0.000360005
Heightened Def Con from 0.000364981 to 0.000364981
Heightened Def Con from 0.00037 to 0.000370001
Heightened Def Con from 0.000374981 to 0.000374981
Heightened Def Con from 0.00038 to 0.00038
Heightened Def Con from 0.00038 to 0.000380001
Heightened Def Con from 0.000384981 to 0.000384981
Heightened Def Con from 0.000385011 to 0.000385012
Heightened Def Con from 0.000389953 to 0.000389954
Heightened Def Con from 0.00039 to 0.000390001
Heightened Def Con from 0.000394981 to 0.000394981
Heightened Def Con from 0.000395011 to 0.000395012
Heightened Def Con from 0.0004 to 0.000400001
Heightened Def Con from 0.000404981 to 0.000404981
Heightened Def Con from 0.000409954 to 0.000409954
Heightened Def Con from 0.00041 to 0.000410001
Heightened Def Con from 0.00041498 to 0.000414981
Heightened Def Con from 0.000419954 to 0.000419954
Heightened Def Con from 0.00042 to 0.000420001
Heightened Def Con from 0.00042498 to 0.000424981
Heightened Def Con from 0.00042501 to 0.000425011
Heightened Def Con from 0.00043 to 0.000430001
Heightened Def Con from 0.000430031 to 0.000430031
Heightened Def Con from 0.00043498 to 0.00043498
Heightened Def Con from 0.000439954 to 0.000439954
Heightened Def Con from 0.00044 to 0.000440001
Heightened Def Con from 0.000444981 to 0.000444981
Heightened Def Con from 0.000445011 to 0.000445011
Heightened Def Con from 0.000449954 to 0.000449954
Heightened Def Con from 0.00045 to 0.000450001
Heightened Def Con from 0.000450499 to 0.000450502
Heightened Def Con from 0.000454981 to 0.000454981
Heightened Def Con from 0.000459954 to 0.000459954
Heightened Def Con from 0.00046 to 0.000460001
Heightened Def Con from 0.000460002 to 0.000460005
Heightened Def Con from 0.000464981 to 0.000464981
Heightened Def Con from 0.000469 to 0.000469002
Heightened Def Con from 0.00047 to 0.000470001
Heightened Def Con from 0.000474978 to 0.000474979
Heightened Def Con from 0.000479954 to 0.000479954
Heightened Def Con from 0.00048 to 0.000480001
Heightened Def Con from 0.000480001 to 0.000480005
Heightened Def Con from 0.000480501 to 0.000480504
Heightened Def Con from 0.000484981 to 0.000484981
Heightened Def Con from 0.00049 to 0.000490001
Heightened Def Con from 0.000490001 to 0.000490005
Heightened Def Con from 0.000494978 to 0.000494979
Heightened Def Con from 0.000499953 to 0.000499954
Heightened Def Con from 0.0005 to 0.000500001
Heightened Def Con from 0.00050498 to 0.00050498
Heightened Def Con from 0.00051 to 0.000510001
Heightened Def Con from 0.000514981 to 0.000514981
Heightened Def Con from 0.000519953 to 0.000519954
Heightened Def Con from 0.00052 to 0.000520001
Heightened Def Con from 0.000524981 to 0.000524981
Heightened Def Con from 0.00053 to 0.000530001
Heightened Def Con from 0.000530031 to 0.000530031
Heightened Def Con from 0.000530101 to 0.000530104
Heightened Def Con from 0.000534981 to 0.000534981
Heightened Def Con from 0.000539953 to 0.000539954
Heightened Def Con from 0.00054 to 0.000540001
Heightened Def Con from 0.000544981 to 0.000544981
Heightened Def Con from 0.000549954 to 0.000549954
Heightened Def Con from 0.00055 to 0.000550001
Heightened Def Con from 0.000554981 to 0.000554981
Heightened Def Con from 0.00056 to 0.000560001
Heightened Def Con from 0.000564981 to 0.000564981
Heightened Def Con from 0.000569954 to 0.000569954
Heightened Def Con from 0.00057 to 0.000570001
Heightened Def Con from 0.000570031 to 0.000570031
Heightened Def Con from 0.000574981 to 0.000574981
Heightened Def Con from 0.000574981 to 0.000574981
Heightened Def Con from 0.000579954 to 0.000579954
Heightened Def Con from 0.00058 to 0.000580001
Heightened Def Con from 0.000584981 to 0.000584981
Heightened Def Con from 0.000589953 to 0.000589954
Heightened Def Con from 0.00059 to 0.000590001
Heightened Def Con from 0.000594981 to 0.000594981
Heightened Def Con from 0.0006 to 0.000600001
Heightened Def Con from 0.000604981 to 0.000604981
Heightened Def Con from 0.000609 to 0.000609002
Heightened Def Con from 0.000609954 to 0.000609954
Heightened Def Con from 0.00061 to 0.000610001
Heightened Def Con from 0.000614981 to 0.000614981
Heightened Def Con from 0.000615011 to 0.000615012
Heightened Def Con from 0.00062 to 0.000620001
Heightened Def Con from 0.000624981 to 0.000624981
Heightened Def Con from 0.00063 to 0.000630001
Heightened Def Con from 0.000630002 to 0.000630005
Heightened Def Con from 0.00063013 to 0.000630135
Heightened Def Con from 0.000634981 to 0.000634981
Heightened Def Con from 0.00064 to 0.000640001
Heightened Def Con from 0.000644981 to 0.000644981
Heightened Def Con from 0.000649954 to 0.000649954
Heightened Def Con from 0.00065 to 0.000650001
Heightened Def Con from 0.000654981 to 0.000654981
Heightened Def Con from 0.000659 to 0.000659002
Heightened Def Con from 0.00066 to 0.000660001
Heightened Def Con from 0.000664981 to 0.000664981
Heightened Def Con from 0.00067 to 0.000670001
Heightened Def Con from 0.000670031 to 0.000670031
Heightened Def Con from 0.00067498 to 0.000674981
Heightened Def Con from 0.000679954 to 0.000679954
Heightened Def Con from 0.00068 to 0.000680001
Heightened Def Con from 0.000684981 to 0.000684981
Heightened Def Con from 0.000689954 to 0.000689954
Heightened Def Con from 0.00069 to 0.000690001
Heightened Def Con from 0.000694981 to 0.000694981
Heightened Def Con from 0.000699954 to 0.000699954
Heightened Def Con from 0.0007 to 0.000700001
Heightened Def Con from 0.000704981 to 0.000704981
Heightened Def Con from 0.000709953 to 0.000709954
Heightened Def Con from 0.00071 to 0.000710001
Heightened Def Con from 0.000714981 to 0.000714981
Heightened Def Con from 0.00072 to 0.000720001
Heightened Def Con from 0.000720031 to 0.000720031
Heightened Def Con from 0.000724981 to 0.000724981
Heightened Def Con from 0.000729954 to 0.000729954
Heightened Def Con from 0.00073 to 0.000730001
Heightened Def Con from 0.000734981 to 0.000734981
Heightened Def Con from 0.000739953 to 0.000739954
Heightened Def Con from 0.00074 to 0.000740001
Heightened Def Con from 0.000740031 to 0.000740031
Heightened Def Con from 0.000740501 to 0.000740504
Heightened Def Con from 0.000744981 to 0.000744981
Heightened Def Con from 0.000749953 to 0.000749954
Heightened Def Con from 0.00075 to 0.000750001
Heightened Def Con from 0.000750001 to 0.000750005
Heightened Def Con from 0.000754981 to 0.000754981
Heightened Def Con from 0.000759954 to 0.000759954
Heightened Def Con from 0.00076 to 0.00076
Heightened Def Con from 0.00076 to 0.000760001
Heightened Def Con from 0.00077 to 0.000770001
Heightened Def Con from 0.000770002 to 0.000770005
Heightened Def Con from 0.000774981 to 0.000774981
Heightened Def Con from 0.00078 to 0.000780001
Heightened Def Con from 0.000784981 to 0.000784981
Heightened Def Con from 0.000788997 to 0.000788999
Heightened Def Con from 0.000789953 to 0.000789954
Heightened Def Con from 0.00079 to 0.000790001
Heightened Def Con from 0.000794981 to 0.000794981
Heightened Def Con from 0.0008 to 0.000800001
Heightened Def Con from 0.000800101 to 0.000800104
Heightened Def Con from 0.000804981 to 0.000804981
Heightened Def Con from 0.000809001 to 0.000809003
Heightened Def Con from 0.000809954 to 0.000809954
Heightened Def Con from 0.00081 to 0.000810001
Heightened Def Con from 0.000814981 to 0.000814981
Heightened Def Con from 0.000819 to 0.000819002
Heightened Def Con from 0.000819953 to 0.000819954
Heightened Def Con from 0.00082 to 0.000820001
Heightened Def Con from 0.000820001 to 0.000820005
Heightened Def Con from 0.000829953 to 0.000829954
Heightened Def Con from 0.00083 to 0.000830001
Heightened Def Con from 0.000830001 to 0.000830005
Heightened Def Con from 0.000834981 to 0.000834981
Heightened Def Con from 0.000835011 to 0.000835012
Heightened Def Con from 0.000839953 to 0.000839954
Heightened Def Con from 0.00084 to 0.000840001
Heightened Def Con from 0.000840001 to 0.000840005
Heightened Def Con from 0.000840031 to 0.000840031
Heightened Def Con from 0.000844981 to 0.000844981
Heightened Def Con from 0.000849954 to 0.000849954
Heightened Def Con from 0.00085 to 0.000850001
Heightened Def Con from 0.000850002 to 0.000850005
Heightened Def Con from 0.000850031 to 0.000850031
Heightened Def Con from 0.000854981 to 0.000854981
Heightened Def Con from 0.000855011 to 0.000855011
Heightened Def Con from 0.000859953 to 0.000859954
Heightened Def Con from 0.00086 to 0.000860001
Heightened Def Con from 0.000864981 to 0.000864981
Heightened Def Con from 0.000868997 to 0.000868999
Heightened Def Con from 0.000869954 to 0.000869954
Heightened Def Con from 0.00087 to 0.000870001
Heightened Def Con from 0.000874981 to 0.000874981
Heightened Def Con from 0.000879953 to 0.000879954
Heightened Def Con from 0.00088 to 0.000880001
Heightened Def Con from 0.000880002 to 0.000880005
Heightened Def Con from 0.000884981 to 0.000884981
Heightened Def Con from 0.000889 to 0.000889002
Heightened Def Con from 0.000889954 to 0.000889954
Heightened Def Con from 0.00089 to 0.000890001
Heightened Def Con from 0.000890501 to 0.000890504
Heightened Def Con from 0.000894981 to 0.000894981
Heightened Def Con from 0.000895081 to 0.000895084
Heightened Def Con from 0.000899954 to 0.000899954
Heightened Def Con from 0.0009 to 0.000900001
Heightened Def Con from 0.000900031 to 0.000900031
Heightened Def Con from 0.000904981 to 0.000904981
Heightened Def Con from 0.000908996 to 0.000908998
Heightened Def Con from 0.00091 to 0.000910001
Heightened Def Con from 0.000910001 to 0.000910005
Heightened Def Con from 0.000914981 to 0.000914981
Heightened Def Con from 0.000919954 to 0.000919954
Heightened Def Con from 0.00092 to 0.000920001
Heightened Def Con from 0.000920031 to 0.000920031
Heightened Def Con from 0.000924981 to 0.000924981
Heightened Def Con from 0.000929954 to 0.000929954
Heightened Def Con from 0.00093 to 0.000930001
Heightened Def Con from 0.000934981 to 0.000934981
Heightened Def Con from 0.000939953 to 0.000939954
Heightened Def Con from 0.00094 to 0.000940001
Heightened Def Con from 0.000944981 to 0.000944981
Heightened Def Con from 0.000949953 to 0.000949954
Heightened Def Con from 0.00095 to 0.000950001
Heightened Def Con from 0.000954981 to 0.000954981
Heightened Def Con from 0.000959 to 0.000959002
Heightened Def Con from 0.000959954 to 0.000959954
Heightened Def Con from 0.00096 to 0.000960001
Heightened Def Con from 0.000964981 to 0.000964981
Heightened Def Con from 0.000965011 to 0.000965012
Heightened Def Con from 0.000968981 to 0.000968983
Heightened Def Con from 0.000969953 to 0.000969954
Heightened Def Con from 0.00097 to 0.000970001
Heightened Def Con from 0.000974981 to 0.000974981
Heightened Def Con from 0.00098 to 0.000980001
Heightened Def Con from 0.000984981 to 0.000984981
Heightened Def Con from 0.000985011 to 0.000985012
Heightened Def Con from 0.000989954 to 0.000989954
Heightened Def Con from 0.00099 to 0.000990001
Heightened Def Con from 0.000990031 to 0.000990031
Heightened Def Con from 0.000994981 to 0.000994983
Heightened Def Con from 0.000999953 to 0.000999954
Heightened Def Con from 0.001 to 0.001
Heightened Def Con from 0.001 to 0.001
Heightened Def Con from 0.001 to 0.001
Heightened Def Con from 0.00100498 to 0.00100498
Heightened Def Con from 0.00100501 to 0.00100501
Heightened Def Con from 0.00100995 to 0.00100995
Heightened Def Con from 0.00101 to 0.00101
Heightened Def Con from 0.00101498 to 0.00101498
Heightened Def Con from 0.001019 to 0.001019
Heightened Def Con from 0.00102 to 0.00102
Heightened Def Con from 0.00102498 to 0.00102498
Heightened Def Con from 0.00102995 to 0.00102995
Heightened Def Con from 0.00103 to 0.00103
Heightened Def Con from 0.00103498 to 0.00103498
Heightened Def Con from 0.00103995 to 0.00103995
Heightened Def Con from 0.00104 to 0.00104
Heightened Def Con from 0.00104498 to 0.00104498
Heightened Def Con from 0.00104995 to 0.00104995
Heightened Def Con from 0.00105 to 0.00105
Heightened Def Con from 0.00105498 to 0.00105498
Heightened Def Con from 0.001059 to 0.001059
Heightened Def Con from 0.00105995 to 0.00105995
Heightened Def Con from 0.00106 to 0.00106
Heightened Def Con from 0.00106498 to 0.00106498
Heightened Def Con from 0.00106498 to 0.00106498
Heightened Def Con from 0.00107 to 0.00107
Heightened Def Con from 0.00107 to 0.00107
Heightened Def Con from 0.00107003 to 0.00107003
Heightened Def Con from 0.00107498 to 0.00107498
Heightened Def Con from 0.00108 to 0.00108
Heightened Def Con from 0.00108003 to 0.00108003
Heightened Def Con from 0.00108498 to 0.00108498
Heightened Def Con from 0.00108995 to 0.00108995
Heightened Def Con from 0.00109 to 0.00109
Heightened Def Con from 0.00109 to 0.00109
Heightened Def Con from 0.00109 to 0.00109001
Heightened Def Con from 0.00109498 to 0.00109498
Heightened Def Con from 0.001099 to 0.001099
Heightened Def Con from 0.00109995 to 0.00109995
Heightened Def Con from 0.0011 to 0.0011
Heightened Def Con from 0.00110003 to 0.00110003
Heightened Def Con from 0.00110498 to 0.00110498
Heightened Def Con from 0.001109 to 0.001109
Heightened Def Con from 0.00110995 to 0.00110995
Heightened Def Con from 0.00111 to 0.00111
Heightened Def Con from 0.00111003 to 0.00111003
Heightened Def Con from 0.00111498 to 0.00111498
Heightened Def Con from 0.00111995 to 0.00111995
Heightened Def Con from 0.00112 to 0.00112
Heightened Def Con from 0.00112 to 0.00112001
Heightened Def Con from 0.00112498 to 0.00112498
Heightened Def Con from 0.001129 to 0.001129
Heightened Def Con from 0.00112995 to 0.00112995
Heightened Def Con from 0.00113 to 0.00113
Heightened Def Con from 0.00113498 to 0.00113498
Heightened Def Con from 0.00114 to 0.00114
Heightened Def Con from 0.00114003 to 0.00114003
Heightened Def Con from 0.00114498 to 0.00114498
Heightened Def Con from 0.00114995 to 0.00114995
Heightened Def Con from 0.00115 to 0.00115
Heightened Def Con from 0.00115003 to 0.00115003
Heightened Def Con from 0.0011501 to 0.0011501
Heightened Def Con from 0.00115498 to 0.00115498
Heightened Def Con from 0.001159 to 0.001159
Heightened Def Con from 0.00115995 to 0.00115995
Heightened Def Con from 0.00116 to 0.00116
Heightened Def Con from 0.00116498 to 0.00116498
Heightened Def Con from 0.001169 to 0.001169
Heightened Def Con from 0.00116995 to 0.00116995
Heightened Def Con from 0.00117 to 0.00117
Heightened Def Con from 0.00117498 to 0.00117498
Heightened Def Con from 0.00117501 to 0.00117501
Heightened Def Con from 0.00117995 to 0.00117995
Heightened Def Con from 0.00118 to 0.00118
Heightened Def Con from 0.00118498 to 0.00118498
Heightened Def Con from 0.001189 to 0.001189
Heightened Def Con from 0.00119 to 0.00119
Heightened Def Con from 0.00119003 to 0.00119003
Heightened Def Con from 0.00119498 to 0.00119498
Heightened Def Con from 0.00119501 to 0.00119501
Heightened Def Con from 0.00119995 to 0.00119995
Heightened Def Con from 0.0012 to 0.0012
Heightened Def Con from 0.00120498 to 0.00120498
Heightened Def Con from 0.00120995 to 0.00120995
Heightened Def Con from 0.00121 to 0.00121
Heightened Def Con from 0.0012105 to 0.0012105
Heightened Def Con from 0.00121498 to 0.00121498
Heightened Def Con from 0.00121501 to 0.00121501
Heightened Def Con from 0.00121508 to 0.00121508
Heightened Def Con from 0.00121995 to 0.00121995
Heightened Def Con from 0.00122 to 0.00122
Heightened Def Con from 0.00122498 to 0.00122498
Heightened Def Con from 0.00123 to 0.00123
Heightened Def Con from 0.00123498 to 0.00123498
Heightened Def Con from 0.00123501 to 0.00123501
Heightened Def Con from 0.00123995 to 0.00123995
Heightened Def Con from 0.00124 to 0.00124
Heightened Def Con from 0.00124 to 0.00124001
Heightened Def Con from 0.00124498 to 0.00124498
Heightened Def Con from 0.00124995 to 0.00124995
Heightened Def Con from 0.00125 to 0.00125
Heightened Def Con from 0.00125498 to 0.00125498
Heightened Def Con from 0.00125995 to 0.00125995
Heightened Def Con from 0.00126 to 0.00126
Heightened Def Con from 0.00126498 to 0.00126498
Heightened Def Con from 0.00127 to 0.00127
Heightened Def Con from 0.00127498 to 0.00127498
Heightened Def Con from 0.00127995 to 0.00127995
Heightened Def Con from 0.00128 to 0.00128
Heightened Def Con from 0.00128498 to 0.00128498
Heightened Def Con from 0.00128995 to 0.00128995
Heightened Def Con from 0.00129 to 0.00129
Heightened Def Con from 0.00129 to 0.00129
Heightened Def Con from 0.00129 to 0.00129
Heightened Def Con from 0.00129 to 0.00129001
Heightened Def Con from 0.00129498 to 0.00129498
Heightened Def Con from 0.00129995 to 0.00129995
Heightened Def Con from 0.0013 to 0.0013
Heightened Def Con from 0.00130498 to 0.00130498
Heightened Def Con from 0.00130995 to 0.00130995
Heightened Def Con from 0.00131 to 0.00131
Heightened Def Con from 0.0013101 to 0.0013101
Heightened Def Con from 0.00131498 to 0.00131498
Heightened Def Con from 0.00131995 to 0.00131995
Heightened Def Con from 0.00132 to 0.00132
Heightened Def Con from 0.00132498 to 0.00132498
Heightened Def Con from 0.001329 to 0.001329
Heightened Def Con from 0.00133 to 0.00133
Heightened Def Con from 0.00133 to 0.00133
Heightened Def Con from 0.00133 to 0.00133
Heightened Def Con from 0.00133498 to 0.00133498
Heightened Def Con from 0.00133995 to 0.00133995
Heightened Def Con from 0.00134 to 0.00134
Heightened Def Con from 0.00134 to 0.00134
Heightened Def Con from 0.00134995 to 0.00134995
Heightened Def Con from 0.00135 to 0.00135
Heightened Def Con from 0.00135498 to 0.00135498
Heightened Def Con from 0.00135995 to 0.00135995
Heightened Def Con from 0.00136 to 0.00136
Heightened Def Con from 0.00136498 to 0.00136498
Heightened Def Con from 0.00137 to 0.00137
Heightened Def Con from 0.00137498 to 0.00137498
Heightened Def Con from 0.00138 to 0.00138
Heightened Def Con from 0.00138995 to 0.00138995
Heightened Def Con from 0.00139 to 0.00139
Heightened Def Con from 0.0013901 to 0.0013901
Heightened Def Con from 0.00139498 to 0.00139498
Heightened Def Con from 0.00139498 to 0.00139498
Heightened Def Con from 0.00139995 to 0.00139995
Heightened Def Con from 0.0014 to 0.0014
Heightened Def Con from 0.00140498 to 0.00140498
Heightened Def Con from 0.00140995 to 0.00140995
Heightened Def Con from 0.00141 to 0.00141
Heightened Def Con from 0.00141498 to 0.00141498
Heightened Def Con from 0.00142 to 0.00142
Heightened Def Con from 0.00142003 to 0.00142003
Heightened Def Con from 0.00142498 to 0.00142498
Heightened Def Con from 0.00142995 to 0.00142995
Heightened Def Con from 0.00143 to 0.00143
Heightened Def Con from 0.00143498 to 0.00143498
Heightened Def Con from 0.00143995 to 0.00143995
Heightened Def Con from 0.00144 to 0.00144
Heightened Def Con from 0.00144498 to 0.00144498
Heightened Def Con from 0.00145 to 0.00145
Heightened Def Con from 0.00145498 to 0.00145498
Heightened Def Con from 0.00145995 to 0.00145995
Heightened Def Con from 0.00146 to 0.00146
Heightened Def Con from 0.00146498 to 0.00146498
Heightened Def Con from 0.00147 to 0.00147
Heightened Def Con from 0.00147003 to 0.00147003
Heightened Def Con from 0.0014705 to 0.0014705
Heightened Def Con from 0.00147498 to 0.00147498
Heightened Def Con from 0.00147995 to 0.00147995
Heightened Def Con from 0.00148 to 0.00148
Heightened Def Con from 0.0014805 to 0.0014805
Heightened Def Con from 0.00148498 to 0.00148498
Heightened Def Con from 0.00148501 to 0.00148501
Heightened Def Con from 0.00148995 to 0.00148995
Heightened Def Con from 0.00149 to 0.00149
Heightened Def Con from 0.00149498 to 0.00149498
Heightened Def Con from 0.00149995 to 0.00149995
Heightened Def Con from 0.0015 to 0.0015
Heightened Def Con from 0.00150498 to 0.00150498
Heightened Def Con from 0.00151 to 0.00151
Heightened Def Con from 0.00151498 to 0.00151498
Heightened Def Con from 0.00151501 to 0.00151501
Heightened Def Con from 0.00152 to 0.00152
Heightened Def Con from 0.00152003 to 0.00152003
Heightened Def Con from 0.00152498 to 0.00152498
Heightened Def Con from 0.00152501 to 0.00152501
Heightened Def Con from 0.00152995 to 0.00152995
Heightened Def Con from 0.00153 to 0.00153
Heightened Def Con from 0.00153 to 0.00153
Heightened Def Con from 0.00153498 to 0.00153498
Heightened Def Con from 0.00153995 to 0.00153995
Heightened Def Con from 0.00154 to 0.00154
Heightened Def Con from 0.00154003 to 0.00154003
Heightened Def Con from 0.00154498 to 0.00154498
Heightened Def Con from 0.00154995 to 0.00154995
Heightened Def Con from 0.00155 to 0.00155
Heightened Def Con from 0.00155498 to 0.00155498
Heightened Def Con from 0.00155995 to 0.00155995
Heightened Def Con from 0.00156 to 0.00156
Heightened Def Con from 0.00156498 to 0.00156498
Heightened Def Con from 0.00156995 to 0.00156995
Heightened Def Con from 0.00157 to 0.00157
Heightened Def Con from 0.00157498 to 0.00157498
Heightened Def Con from 0.00158 to 0.00158
Heightened Def Con from 0.00158003 to 0.00158003
Heightened Def Con from 0.00158498 to 0.00158498
Heightened Def Con from 0.00158995 to 0.00158995
Heightened Def Con from 0.00159 to 0.00159
Heightened Def Con from 0.00159498 to 0.00159498
Heightened Def Con from 0.0016 to 0.0016
Heightened Def Con from 0.0016 to 0.00160001
Heightened Def Con from 0.00160498 to 0.00160498
Heightened Def Con from 0.00161 to 0.00161
Heightened Def Con from 0.00161498 to 0.00161498
Heightened Def Con from 0.00161995 to 0.00161995
Heightened Def Con from 0.00162 to 0.00162
Heightened Def Con from 0.00162 to 0.00162
Heightened Def Con from 0.00162003 to 0.00162003
Heightened Def Con from 0.00162498 to 0.00162498
Heightened Def Con from 0.00163 to 0.00163
Heightened Def Con from 0.0016305 to 0.0016305
Heightened Def Con from 0.00163498 to 0.00163498
Heightened Def Con from 0.00164 to 0.00164
Heightened Def Con from 0.00164498 to 0.00164498
Heightened Def Con from 0.00164995 to 0.00164995
Heightened Def Con from 0.00165 to 0.00165
Heightened Def Con from 0.00165498 to 0.00165498
Heightened Def Con from 0.00166 to 0.00166
Heightened Def Con from 0.00166498 to 0.00166498
Heightened Def Con from 0.00166995 to 0.00166995
Heightened Def Con from 0.00167 to 0.00167
Heightened Def Con from 0.00167498 to 0.00167498
Heightened Def Con from 0.00167501 to 0.00167501
Heightened Def Con from 0.00167995 to 0.00167995
Heightened Def Con from 0.00168 to 0.00168
Heightened Def Con from 0.00168 to 0.00168
Heightened Def Con from 0.00168497 to 0.00168498
Heightened Def Con from 0.00168498 to 0.00168498
Heightened Def Con from 0.001689 to 0.001689
Heightened Def Con from 0.00168995 to 0.00168995
Heightened Def Con from 0.00169 to 0.00169
Heightened Def Con from 0.00169003 to 0.00169003
Heightened Def Con from 0.00169498 to 0.00169498
Heightened Def Con from 0.0017 to 0.0017
Heightened Def Con from 0.00170498 to 0.00170498
Heightened Def Con from 0.00170995 to 0.00170995
Heightened Def Con from 0.00171 to 0.00171
Heightened Def Con from 0.00171 to 0.00171
Heightened Def Con from 0.00171498 to 0.00171498
Heightened Def Con from 0.00171995 to 0.00171995
Heightened Def Con from 0.00172 to 0.00172
Heightened Def Con from 0.00172498 to 0.00172498
Heightened Def Con from 0.001729 to 0.001729
Heightened Def Con from 0.00172995 to 0.00172995
Heightened Def Con from 0.00173 to 0.00173
Heightened Def Con from 0.00173498 to 0.00173498
Heightened Def Con from 0.00174 to 0.00174
Heightened Def Con from 0.00174498 to 0.00174498
Heightened Def Con from 0.001749 to 0.001749
Heightened Def Con from 0.00174995 to 0.00174995
Heightened Def Con from 0.00175 to 0.00175
Heightened Def Con from 0.00175498 to 0.00175498
Heightened Def Con from 0.00175995 to 0.00175995
Heightened Def Con from 0.00176 to 0.00176
Heightened Def Con from 0.00176498 to 0.00176498
Heightened Def Con from 0.00176995 to 0.00176995
Heightened Def Con from 0.00177 to 0.00177
Heightened Def Con from 0.00177498 to 0.00177498
Heightened Def Con from 0.00178 to 0.00178
Heightened Def Con from 0.00178498 to 0.00178498
Heightened Def Con from 0.001789 to 0.001789
Heightened Def Con from 0.00178995 to 0.00178995
Heightened Def Con from 0.00179 to 0.00179
Heightened Def Con from 0.00179 to 0.00179001
Heightened Def Con from 0.00179003 to 0.00179003
Heightened Def Con from 0.00179498 to 0.00179498
Heightened Def Con from 0.0018 to 0.0018
Heightened Def Con from 0.0018 to 0.0018
Heightened Def Con from 0.00180498 to 0.00180498
Heightened Def Con from 0.00180501 to 0.00180501
Heightened Def Con from 0.00181 to 0.00181
Heightened Def Con from 0.00181498 to 0.00181498
Heightened Def Con from 0.00181995 to 0.00181995
Heightened Def Con from 0.00182 to 0.00182
Heightened Def Con from 0.00182498 to 0.00182498
Heightened Def Con from 0.00182995 to 0.00182995
Heightened Def Con from 0.00183 to 0.00183
Heightened Def Con from 0.00183498 to 0.00183498
Heightened Def Con from 0.00183995 to 0.00183995
Heightened Def Con from 0.00184 to 0.00184
Heightened Def Con from 0.00184003 to 0.00184003
Heightened Def Con from 0.00184498 to 0.00184498
Heightened Def Con from 0.00184501 to 0.00184501
Heightened Def Con from 0.00184995 to 0.00184995
Heightened Def Con from 0.00185 to 0.00185
Heightened Def Con from 0.00185498 to 0.00185498
Heightened Def Con from 0.00185501 to 0.00185501
Heightened Def Con from 0.001859 to 0.001859
Heightened Def Con from 0.00185995 to 0.00185995
Heightened Def Con from 0.00186 to 0.00186
Heightened Def Con from 0.00186498 to 0.00186498
Heightened Def Con from 0.00186501 to 0.00186501
Heightened Def Con from 0.00186995 to 0.00186995
Heightened Def Con from 0.00187 to 0.00187
Heightened Def Con from 0.00187498 to 0.00187498
Heightened Def Con from 0.00187995 to 0.00187995
Heightened Def Con from 0.00188 to 0.00188
Heightened Def Con from 0.001889 to 0.001889
Heightened Def Con from 0.00188995 to 0.00188995
Heightened Def Con from 0.00189 to 0.00189
Heightened Def Con from 0.00189498 to 0.00189498
Heightened Def Con from 0.00189995 to 0.00189995
Heightened Def Con from 0.0019 to 0.0019
Heightened Def Con from 0.0019005 to 0.0019005
Heightened Def Con from 0.00190498 to 0.00190498
Heightened Def Con from 0.00190498 to 0.00190498
Heightened Def Con from 0.00190995 to 0.00190995
Heightened Def Con from 0.00191 to 0.00191
Heightened Def Con from 0.00191498 to 0.00191498
Heightened Def Con from 0.00191995 to 0.00191995
Heightened Def Con from 0.00192 to 0.00192
Heightened Def Con from 0.00192 to 0.00192
Heightened Def Con from 0.0019201 to 0.0019201
Heightened Def Con from 0.00192498 to 0.00192498
Heightened Def Con from 0.00192995 to 0.00192995
Heightened Def Con from 0.00193 to 0.00193
Heightened Def Con from 0.00193 to 0.00193001
Heightened Def Con from 0.00193498 to 0.00193498
Heightened Def Con from 0.00193501 to 0.00193501
Heightened Def Con from 0.001939 to 0.001939
Heightened Def Con from 0.00193995 to 0.00193995
Heightened Def Con from 0.00194 to 0.00194
Heightened Def Con from 0.00194 to 0.00194
Heightened Def Con from 0.00194003 to 0.00194003
Heightened Def Con from 0.00194498 to 0.00194498
Heightened Def Con from 0.00194995 to 0.00194995
Heightened Def Con from 0.00195 to 0.00195
Heightened Def Con from 0.00195498 to 0.00195498
Heightened Def Con from 0.00195995 to 0.00195995
Heightened Def Con from 0.00196 to 0.00196
Heightened Def Con from 0.00196003 to 0.00196003
Heightened Def Con from 0.00196501 to 0.00196501
Heightened Def Con from 0.00196995 to 0.00196995
Heightened Def Con from 0.00197 to 0.00197
Heightened Def Con from 0.00197498 to 0.00197498
Heightened Def Con from 0.001979 to 0.001979
Heightened Def Con from 0.00197995 to 0.00197995
Heightened Def Con from 0.00198 to 0.00198
Heightened Def Con from 0.00198003 to 0.00198003
Heightened Def Con from 0.00198498 to 0.00198498
Heightened Def Con from 0.00198995 to 0.00198995
Heightened Def Con from 0.00199 to 0.00199
Heightened Def Con from 0.00199498 to 0.00199498
Heightened Def Con from 0.00199995 to 0.00199995
Heightened Def Con from 0.002 to 0.002
Heightened Def Con from 0.00200498 to 0.00200498
Heightened Def Con from 0.002009 to 0.002009
Heightened Def Con from 0.00200995 to 0.00200995
Heightened Def Con from 0.00201 to 0.00201
Heightened Def Con from 0.00201013 to 0.00201014
Heightened Def Con from 0.00201498 to 0.00201498
Heightened Def Con from 0.00201995 to 0.00201995
Heightened Def Con from 0.00202 to 0.00202
Heightened Def Con from 0.00202498 to 0.00202498
Heightened Def Con from 0.00202501 to 0.00202501
Heightened Def Con from 0.00202995 to 0.00202995
Heightened Def Con from 0.00203 to 0.00203
Heightened Def Con from 0.00203 to 0.00203
Heightened Def Con from 0.00203498 to 0.00203498
Heightened Def Con from 0.002039 to 0.002039
Heightened Def Con from 0.00204 to 0.00204
Heightened Def Con from 0.00204498 to 0.00204498
Heightened Def Con from 0.002049 to 0.002049
Heightened Def Con from 0.00204995 to 0.00204995
Heightened Def Con from 0.00205 to 0.00205
Heightened Def Con from 0.00205 to 0.00205001
Heightened Def Con from 0.00205498 to 0.00205498
Heightened Def Con from 0.00206 to 0.00206
Heightened Def Con from 0.00207 to 0.00207
Heightened Def Con from 0.00207 to 0.00207001
Heightened Def Con from 0.00207003 to 0.00207003
Heightened Def Con from 0.00207498 to 0.00207498
Heightened Def Con from 0.00207508 to 0.00207508
Heightened Def Con from 0.00207995 to 0.00207995
Heightened Def Con from 0.00208 to 0.00208
Heightened Def Con from 0.00208498 to 0.00208498
Heightened Def Con from 0.00208995 to 0.00208995
Heightened Def Con from 0.00209 to 0.00209
Heightened Def Con from 0.00209498 to 0.00209498
Heightened Def Con from 0.002099 to 0.002099
Heightened Def Con from 0.0021 to 0.0021
Heightened Def Con from 0.00210498 to 0.00210498
Heightened Def Con from 0.00210995 to 0.00210995
Heightened Def Con from 0.00211 to 0.00211
Heightened Def Con from 0.00211498 to 0.00211498
Heightened Def Con from 0.002119 to 0.002119
Heightened Def Con from 0.00212 to 0.00212
Heightened Def Con from 0.00212498 to 0.00212498
Heightened Def Con from 0.002129 to 0.002129
Heightened Def Con from 0.00212995 to 0.00212995
Heightened Def Con from 0.00213 to 0.00213
Heightened Def Con from 0.00213498 to 0.00213498
Heightened Def Con from 0.00213498 to 0.00213499
Heightened Def Con from 0.00214 to 0.00214
Heightened Def Con from 0.00214498 to 0.00214498
Heightened Def Con from 0.00214995 to 0.00214995
Heightened Def Con from 0.00215 to 0.00215
Heightened Def Con from 0.00215498 to 0.00215498
Heightened Def Con from 0.002159 to 0.002159
Heightened Def Con from 0.00215995 to 0.00215995
Heightened Def Con from 0.00216 to 0.00216
Heightened Def Con from 0.00216498 to 0.00216498
Heightened Def Con from 0.00216501 to 0.00216501
Heightened Def Con from 0.002169 to 0.002169
Heightened Def Con from 0.00216995 to 0.00216995
Heightened Def Con from 0.00217 to 0.00217
Heightened Def Con from 0.00217 to 0.00217
Heightened Def Con from 0.00217498 to 0.00217498
Heightened Def Con from 0.002179 to 0.002179
Heightened Def Con from 0.00218 to 0.00218
Heightened Def Con from 0.00218498 to 0.00218498
Heightened Def Con from 0.00218995 to 0.00218995
Heightened Def Con from 0.00219 to 0.00219
Heightened Def Con from 0.00219498 to 0.00219498
Heightened Def Con from 0.0022 to 0.0022
Heightened Def Con from 0.00220003 to 0.00220003
Heightened Def Con from 0.00220498 to 0.00220498
Heightened Def Con from 0.002209 to 0.002209
Heightened Def Con from 0.00220995 to 0.00220995
Heightened Def Con from 0.00221 to 0.00221
Heightened Def Con from 0.00221498 to 0.00221498
Heightened Def Con from 0.00221501 to 0.00221501
Heightened Def Con from 0.00221995 to 0.00221995
Heightened Def Con from 0.00222 to 0.00222
Heightened Def Con from 0.00222498 to 0.00222498
Heightened Def Con from 0.00222995 to 0.00222995
Heightened Def Con from 0.00223 to 0.00223
Heightened Def Con from 0.00223498 to 0.00223498
Heightened Def Con from 0.00223995 to 0.00223995
Heightened Def Con from 0.00224 to 0.00224
Heightened Def Con from 0.00224498 to 0.00224498
Heightened Def Con from 0.00224995 to 0.00224995
Heightened Def Con from 0.00225 to 0.00225
Heightened Def Con from 0.00225498 to 0.00225498
Heightened Def Con from 0.00225995 to 0.00225995
Heightened Def Con from 0.00226 to 0.00226
Heightened Def Con from 0.00226 to 0.00226001
Heightened Def Con from 0.00226003 to 0.00226003
Heightened Def Con from 0.00226498 to 0.00226498
Heightened Def Con from 0.00226995 to 0.00226995
Heightened Def Con from 0.00227 to 0.00227
Heightened Def Con from 0.00227498 to 0.00227498
Heightened Def Con from 0.00227995 to 0.00227995
Heightened Def Con from 0.00228 to 0.00228
Heightened Def Con from 0.00228498 to 0.00228498
Heightened Def Con from 0.00228995 to 0.00228995
Heightened Def Con from 0.00229 to 0.00229
Heightened Def Con from 0.00229498 to 0.00229498
Heightened Def Con from 0.00229995 to 0.00229995
Heightened Def Con from 0.0023 to 0.0023
Heightened Def Con from 0.00230498 to 0.00230498
Heightened Def Con from 0.00230995 to 0.00230995
Heightened Def Con from 0.00231 to 0.00231
Heightened Def Con from 0.00231498 to 0.00231498
Heightened Def Con from 0.00232 to 0.00232
Heightened Def Con from 0.00232498 to 0.00232498
Heightened Def Con from 0.00232995 to 0.00232995
Heightened Def Con from 0.00233 to 0.00233
Heightened Def Con from 0.00233498 to 0.00233498
Heightened Def Con from 0.00233995 to 0.00233995
Heightened Def Con from 0.00234 to 0.00234
Heightened Def Con from 0.00234498 to 0.00234498
Heightened Def Con from 0.00234995 to 0.00234995
Heightened Def Con from 0.00235 to 0.00235
Heightened Def Con from 0.00235003 to 0.00235003
Heightened Def Con from 0.00235498 to 0.00235498
Heightened Def Con from 0.00236 to 0.00236
Heightened Def Con from 0.00236498 to 0.00236498
Heightened Def Con from 0.00237 to 0.00237
Heightened Def Con from 0.00237498 to 0.00237498
Heightened Def Con from 0.00237995 to 0.00237995
Heightened Def Con from 0.00238 to 0.00238
Heightened Def Con from 0.00238003 to 0.00238003
Heightened Def Con from 0.00239 to 0.00239
Heightened Def Con from 0.00239498 to 0.00239498
Heightened Def Con from 0.00239995 to 0.00239995
Heightened Def Con from 0.0024 to 0.0024
Heightened Def Con from 0.00240498 to 0.00240498
Heightened Def Con from 0.00240501 to 0.00240501
Heightened Def Con from 0.00241 to 0.00241
Heightened Def Con from 0.00241003 to 0.00241003
Heightened Def Con from 0.00241498 to 0.00241498
Heightened Def Con from 0.00242 to 0.00242
Heightened Def Con from 0.00242498 to 0.00242498
Heightened Def Con from 0.00243 to 0.00243001
Heightened Def Con from 0.00243498 to 0.00243498
Heightened Def Con from 0.00243995 to 0.00243995
Heightened Def Con from 0.00244 to 0.00244
Heightened Def Con from 0.00244003 to 0.00244003
Heightened Def Con from 0.00244498 to 0.00244498
Heightened Def Con from 0.00244995 to 0.00244995
Heightened Def Con from 0.00245 to 0.00245
Heightened Def Con from 0.00245498 to 0.00245498
Heightened Def Con from 0.00245995 to 0.00245995
Heightened Def Con from 0.00246 to 0.00246
Heightened Def Con from 0.00246003 to 0.00246003
Heightened Def Con from 0.0024601 to 0.0024601
Heightened Def Con from 0.00246498 to 0.00246498
Heightened Def Con from 0.00246995 to 0.00246995
Heightened Def Con from 0.00247 to 0.00247
Heightened Def Con from 0.00247498 to 0.00247498
Heightened Def Con from 0.00247995 to 0.00247995
Heightened Def Con from 0.00248 to 0.00248
Heightened Def Con from 0.00248498 to 0.00248498
Heightened Def Con from 0.00248995 to 0.00248995
Heightened Def Con from 0.00249 to 0.00249
Heightened Def Con from 0.00249003 to 0.00249003
Heightened Def Con from 0.00249498 to 0.00249498
Heightened Def Con from 0.00249995 to 0.00249995
Heightened Def Con from 0.0025 to 0.0025
Heightened Def Con from 0.00250498 to 0.00250498
Heightened Def Con from 0.00250995 to 0.00250995
Heightened Def Con from 0.00251 to 0.00251
Heightened Def Con from 0.00251498 to 0.00251498
Heightened Def Con from 0.00251995 to 0.00251995
Heightened Def Con from 0.00252 to 0.00252
Heightened Def Con from 0.00252498 to 0.00252498
Heightened Def Con from 0.00252995 to 0.00252995
Heightened Def Con from 0.00253 to 0.00253
Heightened Def Con from 0.00253498 to 0.00253498
Heightened Def Con from 0.00253995 to 0.00253995
Heightened Def Con from 0.00254 to 0.00254
Heightened Def Con from 0.00254498 to 0.00254498
Heightened Def Con from 0.00254498 to 0.00254498
Heightened Def Con from 0.00255 to 0.00255
Heightened Def Con from 0.00255003 to 0.00255003
Heightened Def Con from 0.00255498 to 0.00255498
Heightened Def Con from 0.00255995 to 0.00255995
Heightened Def Con from 0.00256 to 0.00256
Heightened Def Con from 0.00256498 to 0.00256498
Heightened Def Con from 0.00256995 to 0.00256995
Heightened Def Con from 0.00257 to 0.00257
Heightened Def Con from 0.00257498 to 0.00257498
Heightened Def Con from 0.00257995 to 0.00257995
Heightened Def Con from 0.00258 to 0.00258
Heightened Def Con from 0.00258003 to 0.00258003
Heightened Def Con from 0.00258498 to 0.00258498
Heightened Def Con from 0.00258508 to 0.00258508
Heightened Def Con from 0.00258995 to 0.00258995
Heightened Def Con from 0.00259 to 0.00259
Heightened Def Con from 0.00259498 to 0.00259498
Heightened Def Con from 0.00259995 to 0.00259995
Heightened Def Con from 0.0026 to 0.0026
Heightened Def Con from 0.00260498 to 0.00260498
Heightened Def Con from 0.00260995 to 0.00260995
Heightened Def Con from 0.00261 to 0.00261
Heightened Def Con from 0.00261498 to 0.00261498
Heightened Def Con from 0.00261501 to 0.00261501
Heightened Def Con from 0.00262 to 0.00262
Heightened Def Con from 0.00262 to 0.00262001
Heightened Def Con from 0.0026205 to 0.0026205
Heightened Def Con from 0.00262498 to 0.00262498
Heightened Def Con from 0.00263 to 0.00263
Heightened Def Con from 0.00263498 to 0.00263498
Heightened Def Con from 0.00263501 to 0.00263501
Heightened Def Con from 0.00264 to 0.00264
Heightened Def Con from 0.00264498 to 0.00264498
Heightened Def Con from 0.00264995 to 0.00264995
Heightened Def Con from 0.00265 to 0.00265
Heightened Def Con from 0.00265498 to 0.00265498
Heightened Def Con from 0.00265995 to 0.00265995
Heightened Def Con from 0.00266 to 0.00266
Heightened Def Con from 0.00266498 to 0.00266498
Heightened Def Con from 0.00266995 to 0.00266995
Heightened Def Con from 0.00267 to 0.00267
Heightened Def Con from 0.00267498 to 0.00267498
Heightened Def Con from 0.002679 to 0.002679
Heightened Def Con from 0.00267995 to 0.00267995
Heightened Def Con from 0.00268 to 0.00268
Heightened Def Con from 0.00268498 to 0.00268498
Heightened Def Con from 0.00268995 to 0.00268995
Heightened Def Con from 0.00269 to 0.00269
Heightened Def Con from 0.00269498 to 0.00269498
Heightened Def Con from 0.00269995 to 0.00269995
Heightened Def Con from 0.0027 to 0.0027
Heightened Def Con from 0.00270498 to 0.00270498
Heightened Def Con from 0.00270995 to 0.00270995
Heightened Def Con from 0.00271 to 0.00271
Heightened Def Con from 0.00271 to 0.00271001
Heightened Def Con from 0.00271498 to 0.00271498
Heightened Def Con from 0.002719 to 0.002719
Heightened Def Con from 0.00272 to 0.00272
Heightened Def Con from 0.00272498 to 0.00272498
Heightened Def Con from 0.002729 to 0.002729
Heightened Def Con from 0.00273 to 0.00273
Heightened Def Con from 0.0027305 to 0.0027305
Heightened Def Con from 0.00273498 to 0.00273498
Heightened Def Con from 0.00273501 to 0.00273501
Heightened Def Con from 0.00274 to 0.00274
Heightened Def Con from 0.00274498 to 0.00274498
Heightened Def Con from 0.002749 to 0.002749
Heightened Def Con from 0.00274995 to 0.00274995
Heightened Def Con from 0.00275 to 0.00275
Heightened Def Con from 0.00275498 to 0.00275498
Heightened Def Con from 0.00275501 to 0.00275501
Heightened Def Con from 0.002759 to 0.002759
Heightened Def Con from 0.00275995 to 0.00275995
Heightened Def Con from 0.00276 to 0.00276
Heightened Def Con from 0.00276003 to 0.00276003
Heightened Def Con from 0.00276498 to 0.00276498
Heightened Def Con from 0.00276995 to 0.00276995
Heightened Def Con from 0.00277 to 0.00277
Heightened Def Con from 0.00277 to 0.00277001
Heightened Def Con from 0.00277498 to 0.00277498
Heightened Def Con from 0.00277995 to 0.00277995
Heightened Def Con from 0.00278 to 0.00278
Heightened Def Con from 0.00278003 to 0.00278003
Heightened Def Con from 0.00278498 to 0.00278498
Heightened Def Con from 0.00279 to 0.00279
Heightened Def Con from 0.00279498 to 0.00279498
Heightened Def Con from 0.002799 to 0.002799
Heightened Def Con from 0.00279995 to 0.00279995
Heightened Def Con from 0.0028 to 0.0028
Heightened Def Con from 0.00280003 to 0.00280003
Heightened Def Con from 0.00280498 to 0.00280498
Heightened Def Con from 0.002809 to 0.002809
Heightened Def Con from 0.00280995 to 0.00280995
Heightened Def Con from 0.00281 to 0.00281
Heightened Def Con from 0.00281498 to 0.00281498
Heightened Def Con from 0.00282 to 0.00282
Heightened Def Con from 0.00282498 to 0.00282498
Heightened Def Con from 0.00283 to 0.00283
Heightened Def Con from 0.00283003 to 0.00283003
Heightened Def Con from 0.00283498 to 0.00283498
Heightened Def Con from 0.002839 to 0.002839
Heightened Def Con from 0.00283995 to 0.00283995
Heightened Def Con from 0.00284 to 0.00284
Heightened Def Con from 0.00284003 to 0.00284003
Heightened Def Con from 0.00284498 to 0.00284498
Heightened Def Con from 0.00284995 to 0.00284995
Heightened Def Con from 0.00285 to 0.00285
Heightened Def Con from 0.00285498 to 0.00285498
Heightened Def Con from 0.00285995 to 0.00285995
Heightened Def Con from 0.00286 to 0.00286
Heightened Def Con from 0.00286498 to 0.00286498
Heightened Def Con from 0.00286501 to 0.00286501
Heightened Def Con from 0.002869 to 0.002869
Heightened Def Con from 0.00287 to 0.00287
Heightened Def Con from 0.00287498 to 0.00287498
Heightened Def Con from 0.002879 to 0.002879
Heightened Def Con from 0.00288 to 0.00288
Heightened Def Con from 0.00288498 to 0.00288498
Heightened Def Con from 0.002889 to 0.002889
Heightened Def Con from 0.00288995 to 0.00288995
Heightened Def Con from 0.00289 to 0.00289
Heightened Def Con from 0.00289498 to 0.00289498
Heightened Def Con from 0.00289501 to 0.00289501
Heightened Def Con from 0.002899 to 0.002899
Heightened Def Con from 0.00289995 to 0.00289995
Heightened Def Con from 0.0029 to 0.0029
Heightened Def Con from 0.00290498 to 0.00290498
Heightened Def Con from 0.00290995 to 0.00290995
Heightened Def Con from 0.00291 to 0.00291
Heightened Def Con from 0.00291498 to 0.00291498
Heightened Def Con from 0.00292 to 0.00292
Heightened Def Con from 0.00292498 to 0.00292498
Heightened Def Con from 0.00292995 to 0.00292995
Heightened Def Con from 0.00293 to 0.00293
Heightened Def Con from 0.00293498 to 0.00293498
Heightened Def Con from 0.00294 to 0.00294
Heightened Def Con from 0.00294003 to 0.00294003
Heightened Def Con from 0.00294498 to 0.00294498
Heightened Def Con from 0.00294995 to 0.00294995
Heightened Def Con from 0.00295 to 0.00295
Heightened Def Con from 0.00295498 to 0.00295498
Heightened Def Con from 0.00296 to 0.00296
Heightened Def Con from 0.00296498 to 0.00296498
Heightened Def Con from 0.00296995 to 0.00296995
Heightened Def Con from 0.00297 to 0.00297
Heightened Def Con from 0.00297498 to 0.00297498
Heightened Def Con from 0.00297501 to 0.00297501
Heightened Def Con from 0.00297995 to 0.00297995
Heightened Def Con from 0.00298 to 0.00298
Heightened Def Con from 0.00298498 to 0.00298498
Heightened Def Con from 0.00298995 to 0.00298995
Heightened Def Con from 0.00299 to 0.00299
Heightened Def Con from 0.00299498 to 0.00299498
Heightened Def Con from 0.00299995 to 0.00299995
Heightened Def Con from 0.003 to 0.003
Heightened Def Con from 0.00300498 to 0.00300498
Heightened Def Con from 0.00300501 to 0.00300501
Heightened Def Con from 0.003009 to 0.003009
Heightened Def Con from 0.00301 to 0.00301
Heightened Def Con from 0.00301498 to 0.00301498
Heightened Def Con from 0.00301995 to 0.00301995
Heightened Def Con from 0.00302 to 0.00302
Heightened Def Con from 0.00302498 to 0.00302498
Heightened Def Con from 0.00302995 to 0.00302995
Heightened Def Con from 0.00303 to 0.00303
Heightened Def Con from 0.00303498 to 0.00303498
Heightened Def Con from 0.00304 to 0.00304
Heightened Def Con from 0.0030405 to 0.0030405
Heightened Def Con from 0.00304498 to 0.00304498
Heightened Def Con from 0.003049 to 0.003049
Heightened Def Con from 0.00304995 to 0.00304995
Heightened Def Con from 0.00305 to 0.00305
Heightened Def Con from 0.00305498 to 0.00305498
Heightened Def Con from 0.00306 to 0.00306
Heightened Def Con from 0.00306498 to 0.00306498
Heightened Def Con from 0.003069 to 0.003069
Heightened Def Con from 0.00306995 to 0.00306995
Heightened Def Con from 0.00307 to 0.00307
Heightened Def Con from 0.00307498 to 0.00307498
Heightened Def Con from 0.00307995 to 0.00307995
Heightened Def Con from 0.00308 to 0.00308
Heightened Def Con from 0.00308498 to 0.00308498
Heightened Def Con from 0.00308995 to 0.00308995
Heightened Def Con from 0.00309 to 0.00309
Heightened Def Con from 0.00309498 to 0.00309498
Heightened Def Con from 0.0031 to 0.0031
Heightened Def Con from 0.00310498 to 0.00310498
Heightened Def Con from 0.00311 to 0.00311
Heightened Def Con from 0.00311498 to 0.00311498
Heightened Def Con from 0.00311995 to 0.00311995
Heightened Def Con from 0.00312 to 0.00312
Heightened Def Con from 0.00312498 to 0.00312498
Heightened Def Con from 0.00312995 to 0.00312995
Heightened Def Con from 0.00313 to 0.00313
Heightened Def Con from 0.00313498 to 0.00313498
Heightened Def Con from 0.003139 to 0.003139
Heightened Def Con from 0.00314 to 0.00314
Heightened Def Con from 0.00314498 to 0.00314498
Heightened Def Con from 0.00314501 to 0.00314501
Heightened Def Con from 0.00314995 to 0.00314995
Heightened Def Con from 0.00315 to 0.00315
Heightened Def Con from 0.00315003 to 0.00315003
Heightened Def Con from 0.00315498 to 0.00315498
Heightened Def Con from 0.00315995 to 0.00315995
Heightened Def Con from 0.00316 to 0.00316
Heightened Def Con from 0.00316498 to 0.00316498
Heightened Def Con from 0.00316501 to 0.00316501
Heightened Def Con from 0.003169 to 0.003169
Heightened Def Con from 0.00316995 to 0.00316995
Heightened Def Con from 0.00317 to 0.00317
Heightened Def Con from 0.00317498 to 0.00317498
Heightened Def Con from 0.003179 to 0.003179
Heightened Def Con from 0.00317995 to 0.00317995
Heightened Def Con from 0.00318 to 0.00318
Heightened Def Con from 0.00318498 to 0.00318498
Heightened Def Con from 0.00318995 to 0.00318995
Heightened Def Con from 0.00319 to 0.00319
Heightened Def Con from 0.00319498 to 0.00319498
Heightened Def Con from 0.00319995 to 0.00319995
Heightened Def Con from 0.0032 to 0.0032
Heightened Def Con from 0.00320498 to 0.00320498
Heightened Def Con from 0.00321 to 0.00321
Heightened Def Con from 0.00321498 to 0.00321498
Heightened Def Con from 0.00321995 to 0.00321995
Heightened Def Con from 0.00322 to 0.00322
Heightened Def Con from 0.00322 to 0.00322
Heightened Def Con from 0.00322498 to 0.00322498
Heightened Def Con from 0.00322995 to 0.00322995
Heightened Def Con from 0.00323 to 0.00323
Heightened Def Con from 0.00323498 to 0.00323498
Heightened Def Con from 0.00323501 to 0.00323501
Heightened Def Con from 0.00324 to 0.00324
Heightened Def Con from 0.00324498 to 0.00324498
Heightened Def Con from 0.00324995 to 0.00324995
Heightened Def Con from 0.00325 to 0.00325
Heightened Def Con from 0.00325498 to 0.00325498
Heightened Def Con from 0.00325995 to 0.00325995
Heightened Def Con from 0.00326 to 0.00326
Heightened Def Con from 0.00326498 to 0.00326498
Heightened Def Con from 0.00326995 to 0.00326995
Heightened Def Con from 0.00327 to 0.00327
Heightened Def Con from 0.00327498 to 0.00327498
Heightened Def Con from 0.003279 to 0.003279
Heightened Def Con from 0.00328 to 0.00328
Heightened Def Con from 0.00328498 to 0.00328498
Heightened Def Con from 0.00328995 to 0.00328995
Heightened Def Con from 0.00329 to 0.00329
Heightened Def Con from 0.00329498 to 0.00329498
Heightened Def Con from 0.00329995 to 0.00329995
Heightened Def Con from 0.0033 to 0.0033
Heightened Def Con from 0.00330498 to 0.00330498
Heightened Def Con from 0.00331 to 0.00331
Heightened Def Con from 0.00331003 to 0.00331003
Heightened Def Con from 0.00331498 to 0.00331498
Heightened Def Con from 0.00332 to 0.00332
Heightened Def Con from 0.00332498 to 0.00332498
Heightened Def Con from 0.00332995 to 0.00332995
Heightened Def Con from 0.00333 to 0.00333
Heightened Def Con from 0.00333498 to 0.00333498
Heightened Def Con from 0.00333501 to 0.00333501
Heightened Def Con from 0.00334 to 0.00334
Heightened Def Con from 0.00334498 to 0.00334498
Heightened Def Con from 0.00334995 to 0.00334995
Heightened Def Con from 0.00335 to 0.00335
Heightened Def Con from 0.00335498 to 0.00335498
Heightened Def Con from 0.00335995 to 0.00335995
Heightened Def Con from 0.00336 to 0.00336
Heightened Def Con from 0.00336498 to 0.00336498
Heightened Def Con from 0.00336995 to 0.00336995
Heightened Def Con from 0.00337 to 0.00337
Heightened Def Con from 0.00337003 to 0.00337003
Heightened Def Con from 0.00337498 to 0.00337498
Heightened Def Con from 0.00337501 to 0.00337501
Heightened Def Con from 0.00338 to 0.00338
Heightened Def Con from 0.00338 to 0.00338
Heightened Def Con from 0.00338003 to 0.00338003
Heightened Def Con from 0.00338498 to 0.00338498
Heightened Def Con from 0.00339 to 0.00339
Heightened Def Con from 0.00339498 to 0.00339498
Heightened Def Con from 0.00339995 to 0.00339995
Heightened Def Con from 0.0034 to 0.0034
Heightened Def Con from 0.00340498 to 0.00340498
Heightened Def Con from 0.00340995 to 0.00340995
Heightened Def Con from 0.00341 to 0.00341
Heightened Def Con from 0.00341498 to 0.00341498
Heightened Def Con from 0.00341995 to 0.00341995
Heightened Def Con from 0.00342 to 0.00342
Heightened Def Con from 0.00342498 to 0.00342498
Heightened Def Con from 0.00342995 to 0.00342995
Heightened Def Con from 0.00343 to 0.00343
Heightened Def Con from 0.00343498 to 0.00343498
Heightened Def Con from 0.00343498 to 0.00343498
Heightened Def Con from 0.00343995 to 0.00343995
Heightened Def Con from 0.00344 to 0.00344
Heightened Def Con from 0.0034405 to 0.0034405
Heightened Def Con from 0.00344498 to 0.00344498
Heightened Def Con from 0.00344995 to 0.00344995
Heightened Def Con from 0.00345 to 0.00345
Heightened Def Con from 0.00345498 to 0.00345498
Heightened Def Con from 0.00345995 to 0.00345995
Heightened Def Con from 0.00346 to 0.00346
Heightened Def Con from 0.00346003 to 0.00346003
Heightened Def Con from 0.00346498 to 0.00346498
Heightened Def Con from 0.00347 to 0.00347
Heightened Def Con from 0.00347498 to 0.00347498
Heightened Def Con from 0.00347995 to 0.00347995
Heightened Def Con from 0.00348 to 0.00348
Heightened Def Con from 0.00348498 to 0.00348498
Heightened Def Con from 0.00348498 to 0.00348498
Heightened Def Con from 0.00348995 to 0.00348995
Heightened Def Con from 0.00349 to 0.00349
Heightened Def Con from 0.00349498 to 0.00349498
Heightened Def Con from 0.00349501 to 0.00349501
Heightened Def Con from 0.0035 to 0.0035
Heightened Def Con from 0.0035005 to 0.0035005
Heightened Def Con from 0.00350498 to 0.00350498
Heightened Def Con from 0.00350995 to 0.00350995
Heightened Def Con from 0.00351 to 0.00351
Heightened Def Con from 0.00351 to 0.00351001
Heightened Def Con from 0.00351003 to 0.00351003
Heightened Def Con from 0.00351498 to 0.00351498
Heightened Def Con from 0.00351501 to 0.00351501
Heightened Def Con from 0.00351995 to 0.00351995
Heightened Def Con from 0.00352 to 0.00352
Heightened Def Con from 0.00352498 to 0.00352498
Heightened Def Con from 0.00353 to 0.00353
Heightened Def Con from 0.00353 to 0.00353
Heightened Def Con from 0.00353498 to 0.00353498
Heightened Def Con from 0.00354 to 0.00354
Heightened Def Con from 0.00354498 to 0.00354498
Heightened Def Con from 0.00354995 to 0.00354995
Heightened Def Con from 0.00355 to 0.00355
Heightened Def Con from 0.00355498 to 0.00355498
Heightened Def Con from 0.00355995 to 0.00355995
Heightened Def Con from 0.00356 to 0.00356
Heightened Def Con from 0.00356498 to 0.00356498
Heightened Def Con from 0.00356995 to 0.00356995
Heightened Def Con from 0.00357 to 0.00357
Heightened Def Con from 0.00357498 to 0.00357498
Heightened Def Con from 0.00358 to 0.00358
Heightened Def Con from 0.00358003 to 0.00358003
Heightened Def Con from 0.00358498 to 0.00358498
Heightened Def Con from 0.00358995 to 0.00358995
Heightened Def Con from 0.00359 to 0.00359
Heightened Def Con from 0.00359498 to 0.00359498
Heightened Def Con from 0.00359501 to 0.00359501
Heightened Def Con from 0.0036 to 0.0036
Heightened Def Con from 0.00360498 to 0.00360498
Heightened Def Con from 0.00360995 to 0.00360995
Heightened Def Con from 0.00361 to 0.00361
Heightened Def Con from 0.00361498 to 0.00361498
Heightened Def Con from 0.00361995 to 0.00361995
Heightened Def Con from 0.00362 to 0.00362
Heightened Def Con from 0.00362498 to 0.00362498
Heightened Def Con from 0.003629 to 0.003629
Heightened Def Con from 0.00362995 to 0.00362995
Heightened Def Con from 0.00363 to 0.00363
Heightened Def Con from 0.00363498 to 0.00363498
Heightened Def Con from 0.00363995 to 0.00363995
Heightened Def Con from 0.00364 to 0.00364
Heightened Def Con from 0.00364498 to 0.00364498
Heightened Def Con from 0.00365 to 0.00365
Heightened Def Con from 0.00365498 to 0.00365498
Heightened Def Con from 0.00365501 to 0.00365501
Heightened Def Con from 0.003659 to 0.003659
Heightened Def Con from 0.00365995 to 0.00365995
Heightened Def Con from 0.00366 to 0.00366
Heightened Def Con from 0.00366498 to 0.00366498
Heightened Def Con from 0.003669 to 0.003669
Heightened Def Con from 0.00367 to 0.00367
Heightened Def Con from 0.00367003 to 0.00367003
Heightened Def Con from 0.00367498 to 0.00367498
Heightened Def Con from 0.00368 to 0.00368
Heightened Def Con from 0.00368498 to 0.00368498
Heightened Def Con from 0.00368995 to 0.00368995
Heightened Def Con from 0.00369 to 0.00369
Heightened Def Con from 0.00369498 to 0.00369498
Heightened Def Con from 0.003699 to 0.003699
Heightened Def Con from 0.0037 to 0.0037
Heightened Def Con from 0.00370498 to 0.00370498
Heightened Def Con from 0.00370995 to 0.00370995
Heightened Def Con from 0.00371 to 0.00371
Heightened Def Con from 0.00371498 to 0.00371498
Heightened Def Con from 0.003719 to 0.003719
Heightened Def Con from 0.00371995 to 0.00371995
Heightened Def Con from 0.00372 to 0.00372
Heightened Def Con from 0.00372498 to 0.00372498
Heightened Def Con from 0.00373 to 0.00373
Heightened Def Con from 0.00373498 to 0.00373498
Heightened Def Con from 0.00373995 to 0.00373995
Heightened Def Con from 0.00374 to 0.00374
Heightened Def Con from 0.00374498 to 0.00374498
Heightened Def Con from 0.00375 to 0.00375
Heightened Def Con from 0.00375498 to 0.00375498
Heightened Def Con from 0.00375995 to 0.00375995
Heightened Def Con from 0.00376 to 0.00376
Heightened Def Con from 0.00376498 to 0.00376498
Heightened Def Con from 0.003769 to 0.003769
Heightened Def Con from 0.00377 to 0.00377
Heightened Def Con from 0.00377498 to 0.00377498
Heightened Def Con from 0.00377995 to 0.00377995
Heightened Def Con from 0.00378 to 0.00378
Heightened Def Con from 0.00378498 to 0.00378498
Heightened Def Con from 0.00379 to 0.00379
Heightened Def Con from 0.00379498 to 0.00379498
Heightened Def Con from 0.003799 to 0.003799
Heightened Def Con from 0.00379995 to 0.00379995
Heightened Def Con from 0.0038 to 0.0038
Heightened Def Con from 0.00380003 to 0.00380003
Heightened Def Con from 0.00380498 to 0.00380498
Heightened Def Con from 0.00380995 to 0.00380995
Heightened Def Con from 0.00381 to 0.00381
Heightened Def Con from 0.00381498 to 0.00381498
Heightened Def Con from 0.003819 to 0.003819
Heightened Def Con from 0.00381995 to 0.00381995
Heightened Def Con from 0.00382 to 0.00382
Heightened Def Con from 0.00382 to 0.00382001
Heightened Def Con from 0.00382003 to 0.00382003
Heightened Def Con from 0.00382498 to 0.00382498
Heightened Def Con from 0.003829 to 0.003829
Heightened Def Con from 0.00382995 to 0.00382995
Heightened Def Con from 0.00383 to 0.00383
Heightened Def Con from 0.00383498 to 0.00383498
Heightened Def Con from 0.003839 to 0.003839
Heightened Def Con from 0.00383995 to 0.00383995
Heightened Def Con from 0.00384 to 0.00384
Heightened Def Con from 0.00384498 to 0.00384498
Heightened Def Con from 0.003849 to 0.003849
Heightened Def Con from 0.00385 to 0.00385
Heightened Def Con from 0.00385498 to 0.00385498
Heightened Def Con from 0.00385501 to 0.00385501
Heightened Def Con from 0.003859 to 0.003859
Heightened Def Con from 0.00385995 to 0.00385995
Heightened Def Con from 0.00386 to 0.00386
Heightened Def Con from 0.00386498 to 0.00386498
Heightened Def Con from 0.00386995 to 0.00386995
Heightened Def Con from 0.00387 to 0.00387
Heightened Def Con from 0.00387498 to 0.00387498
Heightened Def Con from 0.00387995 to 0.00387995
Heightened Def Con from 0.00388 to 0.00388
Heightened Def Con from 0.00388003 to 0.00388003
Heightened Def Con from 0.00388498 to 0.00388498
Heightened Def Con from 0.00388995 to 0.00388995
Heightened Def Con from 0.00389 to 0.00389
Heightened Def Con from 0.00389498 to 0.00389498
Heightened Def Con from 0.00389995 to 0.00389995
Heightened Def Con from 0.0039 to 0.0039
Heightened Def Con from 0.00390498 to 0.00390498
Heightened Def Con from 0.003909 to 0.003909
Heightened Def Con from 0.00390995 to 0.00390995
Heightened Def Con from 0.00391 to 0.00391
Heightened Def Con from 0.00391498 to 0.00391498
Heightened Def Con from 0.00391995 to 0.00391995
Heightened Def Con from 0.00392 to 0.00392
Heightened Def Con from 0.00392 to 0.00392
Heightened Def Con from 0.00392498 to 0.00392498
Heightened Def Con from 0.003929 to 0.003929
Heightened Def Con from 0.00392995 to 0.00392995
Heightened Def Con from 0.00393 to 0.00393
Heightened Def Con from 0.00393498 to 0.00393498
Heightened Def Con from 0.00394 to 0.00394
Heightened Def Con from 0.00394498 to 0.00394498
Heightened Def Con from 0.00394995 to 0.00394995
Heightened Def Con from 0.00395 to 0.00395
Heightened Def Con from 0.00395498 to 0.00395498
Heightened Def Con from 0.00395501 to 0.00395501
Heightened Def Con from 0.003959 to 0.003959
Heightened Def Con from 0.00395995 to 0.00395995
Heightened Def Con from 0.00396 to 0.00396
Heightened Def Con from 0.00396 to 0.00396
Heightened Def Con from 0.00396498 to 0.00396498
Heightened Def Con from 0.00396995 to 0.00396995
Heightened Def Con from 0.00397 to 0.00397
Heightened Def Con from 0.00397003 to 0.00397003
Heightened Def Con from 0.00397498 to 0.00397498
Heightened Def Con from 0.003979 to 0.003979
Heightened Def Con from 0.00398 to 0.00398
Heightened Def Con from 0.00398498 to 0.00398498
Heightened Def Con from 0.00398995 to 0.00398995
Heightened Def Con from 0.00399 to 0.00399
Heightened Def Con from 0.00399498 to 0.00399498
Heightened Def Con from 0.004 to 0.004
Heightened Def Con from 0.00400003 to 0.00400003
Heightened Def Con from 0.00400498 to 0.00400498
Heightened Def Con from 0.00400501 to 0.00400501
Heightened Def Con from 0.004009 to 0.004009
Heightened Def Con from 0.00400995 to 0.00400995
Heightened Def Con from 0.00401 to 0.00401
Heightened Def Con from 0.00401498 to 0.00401498
Heightened Def Con from 0.00402 to 0.00402
Heightened Def Con from 0.00402498 to 0.00402498
Heightened Def Con from 0.00402498 to 0.00402498
Heightened Def Con from 0.00402995 to 0.00402995
Heightened Def Con from 0.00403 to 0.00403
Heightened Def Con from 0.00403498 to 0.00403498
Heightened Def Con from 0.004039 to 0.004039
Heightened Def Con from 0.00404 to 0.00404
Heightened Def Con from 0.00404498 to 0.00404498
Heightened Def Con from 0.00404995 to 0.00404995
Heightened Def Con from 0.00405 to 0.00405
Heightened Def Con from 0.00405 to 0.00405
Heightened Def Con from 0.00405498 to 0.00405498
Heightened Def Con from 0.00406 to 0.00406
Heightened Def Con from 0.00406498 to 0.00406498
Heightened Def Con from 0.00406995 to 0.00406995
Heightened Def Con from 0.00407 to 0.00407
Heightened Def Con from 0.00407498 to 0.00407498
Heightened Def Con from 0.00407995 to 0.00407995
Heightened Def Con from 0.00408 to 0.00408
Heightened Def Con from 0.00408498 to 0.00408498
Heightened Def Con from 0.00408995 to 0.00408995
Heightened Def Con from 0.00409 to 0.00409
Heightened Def Con from 0.00409498 to 0.00409498
Heightened Def Con from 0.004099 to 0.004099
Heightened Def Con from 0.0041 to 0.0041
Heightened Def Con from 0.00410003 to 0.00410003
Heightened Def Con from 0.0041005 to 0.0041005
Heightened Def Con from 0.00410498 to 0.00410498
Heightened Def Con from 0.004109 to 0.004109
Heightened Def Con from 0.00411 to 0.00411
Heightened Def Con from 0.00411498 to 0.00411498
Heightened Def Con from 0.00412 to 0.00412
Heightened Def Con from 0.00412498 to 0.00412498
Heightened Def Con from 0.00412501 to 0.00412501
Heightened Def Con from 0.00413 to 0.00413
Heightened Def Con from 0.00413498 to 0.00413498
Heightened Def Con from 0.00413501 to 0.00413501
Heightened Def Con from 0.00413995 to 0.00413995
Heightened Def Con from 0.00414 to 0.00414
Heightened Def Con from 0.00414498 to 0.00414498
Heightened Def Con from 0.00414995 to 0.00414995
Heightened Def Con from 0.00415 to 0.00415
Heightened Def Con from 0.00415498 to 0.00415498
Heightened Def Con from 0.00415995 to 0.00415995
Heightened Def Con from 0.00416 to 0.00416
Heightened Def Con from 0.00416498 to 0.00416498
Heightened Def Con from 0.00416995 to 0.00416995
Heightened Def Con from 0.00417 to 0.00417
Heightened Def Con from 0.00417498 to 0.00417498
Heightened Def Con from 0.00418 to 0.00418
Heightened Def Con from 0.00418498 to 0.00418498
Heightened Def Con from 0.00418995 to 0.00418995
Heightened Def Con from 0.00419 to 0.00419
Heightened Def Con from 0.00419498 to 0.00419498
Heightened Def Con from 0.0042 to 0.0042
Heightened Def Con from 0.00420498 to 0.00420498
Heightened Def Con from 0.004209 to 0.004209
Heightened Def Con from 0.00420995 to 0.00420995
Heightened Def Con from 0.00421 to 0.00421
Heightened Def Con from 0.00421498 to 0.00421498
Heightened Def Con from 0.00421995 to 0.00421995
Heightened Def Con from 0.00422 to 0.00422
Heightened Def Con from 0.00422498 to 0.00422498
Heightened Def Con from 0.00422995 to 0.00422995
Heightened Def Con from 0.00423 to 0.00423
Heightened Def Con from 0.00423498 to 0.00423498
Heightened Def Con from 0.00423995 to 0.00423995
Heightened Def Con from 0.00424 to 0.00424
Heightened Def Con from 0.00424 to 0.00424
Heightened Def Con from 0.00424 to 0.00424
Heightened Def Con from 0.00424498 to 0.00424498
Heightened Def Con from 0.00424995 to 0.00424995
Heightened Def Con from 0.00425 to 0.00425
Heightened Def Con from 0.00425498 to 0.00425498
Heightened Def Con from 0.00425995 to 0.00425995
Heightened Def Con from 0.00426 to 0.00426
Heightened Def Con from 0.00426498 to 0.00426498
Heightened Def Con from 0.00426995 to 0.00426995
Heightened Def Con from 0.00427 to 0.00427
Heightened Def Con from 0.00427498 to 0.00427498
Heightened Def Con from 0.00427995 to 0.00427995
Heightened Def Con from 0.00428 to 0.00428
Heightened Def Con from 0.00428498 to 0.00428498
Heightened Def Con from 0.00428508 to 0.00428508
Heightened Def Con from 0.00428995 to 0.00428995
Heightened Def Con from 0.00429 to 0.00429
Heightened Def Con from 0.00429498 to 0.00429498
Heightened Def Con from 0.00429995 to 0.00429995
Heightened Def Con from 0.0043 to 0.0043
Heightened Def Con from 0.00430003 to 0.00430003
Heightened Def Con from 0.0043005 to 0.0043005
Heightened Def Con from 0.00430498 to 0.00430498
Heightened Def Con from 0.00430995 to 0.00430995
Heightened Def Con from 0.00431 to 0.00431
Heightened Def Con from 0.00431498 to 0.00431498
Heightened Def Con from 0.00431995 to 0.00431995
Heightened Def Con from 0.00432 to 0.00432
Heightened Def Con from 0.00432003 to 0.00432003
Heightened Def Con from 0.00432498 to 0.00432498
Heightened Def Con from 0.00432995 to 0.00432995
Heightened Def Con from 0.00433 to 0.00433
Heightened Def Con from 0.00433498 to 0.00433498
Heightened Def Con from 0.00433995 to 0.00433995
Heightened Def Con from 0.00434 to 0.00434
Heightened Def Con from 0.00434498 to 0.00434498
Heightened Def Con from 0.00434995 to 0.00434995
Heightened Def Con from 0.00435 to 0.00435
Heightened Def Con from 0.00435498 to 0.00435498
Heightened Def Con from 0.00436 to 0.00436
Heightened Def Con from 0.00436498 to 0.00436498
Heightened Def Con from 0.00436498 to 0.00436498
Heightened Def Con from 0.00436995 to 0.00436995
Heightened Def Con from 0.00437 to 0.00437
Heightened Def Con from 0.00437498 to 0.00437498
Heightened Def Con from 0.00438 to 0.00438
Heightened Def Con from 0.00438003 to 0.00438003
Heightened Def Con from 0.00438498 to 0.00438498
Heightened Def Con from 0.00438995 to 0.00438995
Heightened Def Con from 0.00439 to 0.00439
Heightened Def Con from 0.00439498 to 0.00439498
Heightened Def Con from 0.00439995 to 0.00439995
Heightened Def Con from 0.0044 to 0.0044
Heightened Def Con from 0.00440498 to 0.00440498
Heightened Def Con from 0.00440995 to 0.00440995
Heightened Def Con from 0.00441 to 0.00441
Heightened Def Con from 0.00441498 to 0.00441498
Heightened Def Con from 0.00441995 to 0.00441995
Heightened Def Con from 0.00442 to 0.00442
Heightened Def Con from 0.00442 to 0.00442
Heightened Def Con from 0.00442498 to 0.00442498
Heightened Def Con from 0.00443 to 0.00443
Heightened Def Con from 0.00443498 to 0.00443498
Heightened Def Con from 0.00444 to 0.00444
Heightened Def Con from 0.00444498 to 0.00444498
Heightened Def Con from 0.00444995 to 0.00444995
Heightened Def Con from 0.00445 to 0.00445
Heightened Def Con from 0.00445498 to 0.00445498
Heightened Def Con from 0.00445995 to 0.00445995
Heightened Def Con from 0.00446 to 0.00446
Heightened Def Con from 0.00446003 to 0.00446003
Heightened Def Con from 0.00446498 to 0.00446498
Heightened Def Con from 0.00447 to 0.00447
Heightened Def Con from 0.00447498 to 0.00447498
Heightened Def Con from 0.00447498 to 0.00447499
Heightened Def Con from 0.00447995 to 0.00447995
Heightened Def Con from 0.00448 to 0.00448
Heightened Def Con from 0.00448498 to 0.00448498
Heightened Def Con from 0.00448995 to 0.00448995
Heightened Def Con from 0.00449 to 0.00449
Heightened Def Con from 0.00449003 to 0.00449003
Heightened Def Con from 0.00449498 to 0.00449498
Heightened Def Con from 0.00449995 to 0.00449995
Heightened Def Con from 0.0045 to 0.0045
Heightened Def Con from 0.0045005 to 0.0045005
Heightened Def Con from 0.00450498 to 0.00450498
Heightened Def Con from 0.00451 to 0.00451
Heightened Def Con from 0.00451498 to 0.00451498
Heightened Def Con from 0.00451995 to 0.00451995
Heightened Def Con from 0.00452 to 0.00452
Heightened Def Con from 0.00452498 to 0.00452498
Heightened Def Con from 0.00452995 to 0.00452995
Heightened Def Con from 0.00453 to 0.00453
Heightened Def Con from 0.00453498 to 0.00453498
Heightened Def Con from 0.00454 to 0.00454
Heightened Def Con from 0.00454003 to 0.00454003
Heightened Def Con from 0.00454498 to 0.00454498
Heightened Def Con from 0.00454995 to 0.00454995
Heightened Def Con from 0.00455 to 0.00455
Heightened Def Con from 0.0045505 to 0.0045505
Heightened Def Con from 0.00455498 to 0.00455498
Heightened Def Con from 0.00455995 to 0.00455995
Heightened Def Con from 0.00456 to 0.00456
Heightened Def Con from 0.00456498 to 0.00456498
Heightened Def Con from 0.00456995 to 0.00456995
Heightened Def Con from 0.00457 to 0.00457
Heightened Def Con from 0.00457498 to 0.00457498
Heightened Def Con from 0.00457995 to 0.00457995
Heightened Def Con from 0.00458 to 0.00458
Heightened Def Con from 0.00458498 to 0.00458498
Heightened Def Con from 0.00459 to 0.00459
Heightened Def Con from 0.00459498 to 0.00459498
Heightened Def Con from 0.00459995 to 0.00459995
Heightened Def Con from 0.0046 to 0.0046
Heightened Def Con from 0.00460498 to 0.00460498
Heightened Def Con from 0.004609 to 0.004609
Heightened Def Con from 0.00460995 to 0.00460995
Heightened Def Con from 0.00461 to 0.00461
Heightened Def Con from 0.004619 to 0.004619
Heightened Def Con from 0.00462 to 0.00462
Heightened Def Con from 0.00462995 to 0.00462995
Heightened Def Con from 0.00463 to 0.00463
Heightened Def Con from 0.00463003 to 0.00463003
Heightened Def Con from 0.00463498 to 0.00463498
Heightened Def Con from 0.00464 to 0.00464
Heightened Def Con from 0.00464003 to 0.00464003
Heightened Def Con from 0.00464498 to 0.00464498
Heightened Def Con from 0.004649 to 0.004649
Heightened Def Con from 0.00464995 to 0.00464995
Heightened Def Con from 0.00465 to 0.00465
Heightened Def Con from 0.0046505 to 0.0046505
Heightened Def Con from 0.00465498 to 0.00465498
Heightened Def Con from 0.00465995 to 0.00465995
Heightened Def Con from 0.00466 to 0.00466
Heightened Def Con from 0.00466003 to 0.00466003
Heightened Def Con from 0.00466498 to 0.00466498
Heightened Def Con from 0.00466995 to 0.00466995
Heightened Def Con from 0.00467 to 0.00467
Heightened Def Con from 0.00467498 to 0.00467498
Heightened Def Con from 0.00467501 to 0.00467501
Heightened Def Con from 0.00468 to 0.00468
Heightened Def Con from 0.00468498 to 0.00468498
Heightened Def Con from 0.00469 to 0.00469
Heightened Def Con from 0.00469498 to 0.00469498
Heightened Def Con from 0.0047 to 0.0047
Heightened Def Con from 0.00470498 to 0.00470498
Heightened Def Con from 0.00470995 to 0.00470995
Heightened Def Con from 0.00471 to 0.00471
Heightened Def Con from 0.00471013 to 0.00471014
Heightened Def Con from 0.0047105 to 0.0047105
Heightened Def Con from 0.00471498 to 0.00471498
Heightened Def Con from 0.00472 to 0.00472
Heightened Def Con from 0.00472498 to 0.00472498
Heightened Def Con from 0.004729 to 0.004729
Heightened Def Con from 0.00472995 to 0.00472995
Heightened Def Con from 0.00473 to 0.00473
Heightened Def Con from 0.00473498 to 0.00473498
Heightened Def Con from 0.00474 to 0.00474
Heightened Def Con from 0.00474498 to 0.00474498
Heightened Def Con from 0.00474995 to 0.00474995
Heightened Def Con from 0.00475 to 0.00475
Heightened Def Con from 0.00475003 to 0.00475003
Heightened Def Con from 0.00475498 to 0.00475498
Heightened Def Con from 0.004759 to 0.004759
Heightened Def Con from 0.00476 to 0.00476
Heightened Def Con from 0.00476 to 0.00476
Heightened Def Con from 0.00476498 to 0.00476498
Heightened Def Con from 0.004769 to 0.004769
Heightened Def Con from 0.00477 to 0.00477
Heightened Def Con from 0.00477003 to 0.00477003
Heightened Def Con from 0.00477498 to 0.00477498
Heightened Def Con from 0.00477501 to 0.00477501
Heightened Def Con from 0.004779 to 0.004779
Heightened Def Con from 0.00477995 to 0.00477995
Heightened Def Con from 0.00478 to 0.00478
Heightened Def Con from 0.00478498 to 0.00478498
Heightened Def Con from 0.00478995 to 0.00478995
Heightened Def Con from 0.00479 to 0.00479
Heightened Def Con from 0.00479498 to 0.00479498
Heightened Def Con from 0.0048 to 0.0048
Heightened Def Con from 0.00480498 to 0.00480498
Heightened Def Con from 0.00481 to 0.00481
Heightened Def Con from 0.00481003 to 0.00481003
Heightened Def Con from 0.00481498 to 0.00481498
Heightened Def Con from 0.00481995 to 0.00481995
Heightened Def Con from 0.00482 to 0.00482
Heightened Def Con from 0.00482498 to 0.00482498
Heightened Def Con from 0.00482995 to 0.00482995
Heightened Def Con from 0.00483 to 0.00483
Heightened Def Con from 0.00483498 to 0.00483498
Heightened Def Con from 0.00483995 to 0.00483995
Heightened Def Con from 0.00484 to 0.00484
Heightened Def Con from 0.0048401 to 0.0048401
Heightened Def Con from 0.00484498 to 0.00484498
Heightened Def Con from 0.004849 to 0.004849
Heightened Def Con from 0.00484995 to 0.00484995
Heightened Def Con from 0.00485 to 0.00485
Heightened Def Con from 0.00485498 to 0.00485498
Heightened Def Con from 0.00485995 to 0.00485995
Heightened Def Con from 0.00486 to 0.00486
Heightened Def Con from 0.00486498 to 0.00486498
Heightened Def Con from 0.00486501 to 0.00486501
Heightened Def Con from 0.004869 to 0.004869
Heightened Def Con from 0.00486995 to 0.00486995
Heightened Def Con from 0.00487 to 0.00487
Heightened Def Con from 0.00487498 to 0.00487498
Heightened Def Con from 0.00488 to 0.00488
Heightened Def Con from 0.00488498 to 0.00488498
Heightened Def Con from 0.00488995 to 0.00488995
Heightened Def Con from 0.00489 to 0.00489
Heightened Def Con from 0.00489003 to 0.00489003
Heightened Def Con from 0.00489498 to 0.00489498
[...]
Heightened Def Con from 0.00879 to 0.00879
Heightened Def Con from 0.00879498 to 0.00879498
Heightened Def Con from 0.00879995 to 0.00879995
Heightened Def Con from 0.0088 to 0.0088
Heightened Def Con from 0.00880498 to 0.00880498
Heightened Def Con from 0.00880995 to 0.00880995
Heightened Def Con from 0.00881 to 0.00881
Heightened Def Con from 0.00881003 to 0.00881003
Heightened Def Con from 0.00881498 to 0.00881498
Heightened Def Con from 0.008819 to 0.008819
Heightened Def Con from 0.00881995 to 0.00881995
Heightened Def Con from 0.00882 to 0.00882
Heightened Def Con from 0.00882498 to 0.00882498
Heightened Def Con from 0.00882501 to 0.00882501
Heightened Def Con from 0.008829 to 0.008829
Heightened Def Con from 0.00883 to 0.00883
Heightened Def Con from 0.00883 to 0.00883
Heightened Def Con from 0.00883498 to 0.00883498
Heightened Def Con from 0.00883995 to 0.00883995
Heightened Def Con from 0.00884 to 0.00884
Heightened Def Con from 0.00884498 to 0.00884498
Heightened Def Con from 0.00884501 to 0.00884501
Heightened Def Con from 0.00885 to 0.00885
Heightened Def Con from 0.00885498 to 0.00885498
Heightened Def Con from 0.00885498 to 0.00885498
Heightened Def Con from 0.00885995 to 0.00885995
Heightened Def Con from 0.00886 to 0.00886
Heightened Def Con from 0.00886498 to 0.00886498
Heightened Def Con from 0.00886995 to 0.00886995
Heightened Def Con from 0.00887 to 0.00887
Heightened Def Con from 0.00887498 to 0.00887498
Heightened Def Con from 0.008879 to 0.008879
Heightened Def Con from 0.00887995 to 0.00887995
Heightened Def Con from 0.00888 to 0.00888
Heightened Def Con from 0.00888498 to 0.00888498
Heightened Def Con from 0.00888995 to 0.00888995
Heightened Def Con from 0.00889 to 0.00889
Heightened Def Con from 0.00889498 to 0.00889498
Heightened Def Con from 0.00889995 to 0.00889995
Heightened Def Con from 0.0089 to 0.0089
Heightened Def Con from 0.00890498 to 0.00890498
Heightened Def Con from 0.00890995 to 0.00890995
Heightened Def Con from 0.00891 to 0.00891
Heightened Def Con from 0.00891498 to 0.00891498
Heightened Def Con from 0.00891995 to 0.00891995
Heightened Def Con from 0.00892 to 0.00892
Heightened Def Con from 0.00892498 to 0.00892498
Heightened Def Con from 0.00892995 to 0.00892995
Heightened Def Con from 0.00893 to 0.00893
Heightened Def Con from 0.00893498 to 0.00893498
Heightened Def Con from 0.00893995 to 0.00893995
Heightened Def Con from 0.00894 to 0.00894
Heightened Def Con from 0.00894003 to 0.00894003
Heightened Def Con from 0.00894498 to 0.00894498
Heightened Def Con from 0.00894995 to 0.00894995
Heightened Def Con from 0.00895 to 0.00895
Heightened Def Con from 0.00895498 to 0.00895498
Heightened Def Con from 0.00895995 to 0.00895995
Heightened Def Con from 0.00896 to 0.00896
Heightened Def Con from 0.00896498 to 0.00896498
Heightened Def Con from 0.00896995 to 0.00896995
Heightened Def Con from 0.00897 to 0.00897
Heightened Def Con from 0.00897003 to 0.00897003
Heightened Def Con from 0.00897498 to 0.00897498
Heightened Def Con from 0.00897501 to 0.00897501
Heightened Def Con from 0.00898 to 0.00898
Heightened Def Con from 0.00898498 to 0.00898498
Heightened Def Con from 0.00898995 to 0.00898995
Heightened Def Con from 0.00899 to 0.00899
Heightened Def Con from 0.00899498 to 0.00899498
Heightened Def Con from 0.00899995 to 0.00899995
Heightened Def Con from 0.009 to 0.009
Heightened Def Con from 0.00900498 to 0.00900498
Heightened Def Con from 0.009009 to 0.009009
Heightened Def Con from 0.00900995 to 0.00900995
Heightened Def Con from 0.00901 to 0.00901
Heightened Def Con from 0.00901003 to 0.00901003
Heightened Def Con from 0.00901498 to 0.00901498
Heightened Def Con from 0.00901995 to 0.00901995
Heightened Def Con from 0.00902 to 0.00902
Heightened Def Con from 0.00902498 to 0.00902498
Heightened Def Con from 0.00902995 to 0.00902995
Heightened Def Con from 0.00903 to 0.00903
Heightened Def Con from 0.00903003 to 0.00903003
Heightened Def Con from 0.0090305 to 0.0090305
Heightened Def Con from 0.00903498 to 0.00903498
Heightened Def Con from 0.00903995 to 0.00903995
Heightened Def Con from 0.00904 to 0.00904
Heightened Def Con from 0.00904498 to 0.00904498
Heightened Def Con from 0.00904995 to 0.00904995
Heightened Def Con from 0.00905 to 0.00905
Heightened Def Con from 0.00905 to 0.00905
Heightened Def Con from 0.00905498 to 0.00905498
Heightened Def Con from 0.00905501 to 0.00905501
Heightened Def Con from 0.00906 to 0.00906
Heightened Def Con from 0.00906498 to 0.00906498
Heightened Def Con from 0.00907 to 0.00907
Heightened Def Con from 0.00907003 to 0.00907003
Heightened Def Con from 0.00907498 to 0.00907498
Heightened Def Con from 0.00907995 to 0.00907995
Heightened Def Con from 0.00908 to 0.00908
Heightened Def Con from 0.00908498 to 0.00908498
Heightened Def Con from 0.00908995 to 0.00908995
Heightened Def Con from 0.00909 to 0.00909
Heightened Def Con from 0.00909498 to 0.00909498
Heightened Def Con from 0.00909995 to 0.00909995
Heightened Def Con from 0.0091 to 0.0091
Heightened Def Con from 0.00910498 to 0.00910498
Heightened Def Con from 0.009109 to 0.009109
Heightened Def Con from 0.00910995 to 0.00910995
Heightened Def Con from 0.00911 to 0.00911
Heightened Def Con from 0.00911498 to 0.00911498
Heightened Def Con from 0.009119 to 0.009119
Heightened Def Con from 0.00912 to 0.00912
Heightened Def Con from 0.00912 to 0.00912
Heightened Def Con from 0.00912498 to 0.00912498
Heightened Def Con from 0.00912995 to 0.00912995
Heightened Def Con from 0.00913 to 0.00913
Heightened Def Con from 0.00913 to 0.00913
Heightened Def Con from 0.00913498 to 0.00913498
Heightened Def Con from 0.009139 to 0.009139
Heightened Def Con from 0.00914 to 0.00914
Heightened Def Con from 0.00914498 to 0.00914498
Heightened Def Con from 0.009149 to 0.009149
Heightened Def Con from 0.00914995 to 0.00914995
Heightened Def Con from 0.00915 to 0.00915
Heightened Def Con from 0.00915003 to 0.00915003
Heightened Def Con from 0.00915498 to 0.00915498
Heightened Def Con from 0.009159 to 0.009159
Heightened Def Con from 0.00915995 to 0.00915995
Heightened Def Con from 0.00916 to 0.00916
Heightened Def Con from 0.00916498 to 0.00916498
Heightened Def Con from 0.00916995 to 0.00916995
Heightened Def Con from 0.00917 to 0.00917
Heightened Def Con from 0.00917498 to 0.00917498
Heightened Def Con from 0.00917501 to 0.00917501
Heightened Def Con from 0.009179 to 0.009179
Heightened Def Con from 0.00917995 to 0.00917995
Heightened Def Con from 0.00918 to 0.00918
Heightened Def Con from 0.00918498 to 0.00918498
Heightened Def Con from 0.00918995 to 0.00918995
Heightened Def Con from 0.00919 to 0.00919
Heightened Def Con from 0.00919498 to 0.00919498
Heightened Def Con from 0.00919995 to 0.00919995
Heightened Def Con from 0.0092 to 0.0092
Heightened Def Con from 0.0092 to 0.0092
Heightened Def Con from 0.00920498 to 0.00920498
Heightened Def Con from 0.00920995 to 0.00920995
Heightened Def Con from 0.00921 to 0.00921
Heightened Def Con from 0.00921498 to 0.00921498
Heightened Def Con from 0.00922 to 0.00922
Heightened Def Con from 0.00922498 to 0.00922498
Heightened Def Con from 0.00922995 to 0.00922995
Heightened Def Con from 0.00923 to 0.00923
Heightened Def Con from 0.00923498 to 0.00923498
Heightened Def Con from 0.00923498 to 0.00923499
Heightened Def Con from 0.009239 to 0.009239
Heightened Def Con from 0.00924 to 0.00924
Heightened Def Con from 0.0092405 to 0.00924051
Heightened Def Con from 0.00924995 to 0.00924995
Heightened Def Con from 0.00925 to 0.00925
Heightened Def Con from 0.00925498 to 0.00925498
Heightened Def Con from 0.00926 to 0.00926
Heightened Def Con from 0.00926498 to 0.00926498
Heightened Def Con from 0.009269 to 0.009269
Heightened Def Con from 0.00926995 to 0.00926995
Heightened Def Con from 0.00927 to 0.00927
Heightened Def Con from 0.00927003 to 0.00927003
Heightened Def Con from 0.00927498 to 0.00927498
Heightened Def Con from 0.009279 to 0.009279
Heightened Def Con from 0.00927995 to 0.00927995
Heightened Def Con from 0.00928 to 0.00928
Heightened Def Con from 0.00928003 to 0.00928003
Heightened Def Con from 0.00928498 to 0.00928498
Heightened Def Con from 0.009289 to 0.009289
Heightened Def Con from 0.00928995 to 0.00928995
Heightened Def Con from 0.00929 to 0.00929
Heightened Def Con from 0.00929498 to 0.00929498
Heightened Def Con from 0.0093 to 0.0093
Heightened Def Con from 0.00930498 to 0.00930498
Heightened Def Con from 0.00931 to 0.00931
Heightened Def Con from 0.00931498 to 0.00931498
Heightened Def Con from 0.00931501 to 0.00931501
Heightened Def Con from 0.00931995 to 0.00931995
Heightened Def Con from 0.00932 to 0.00932
Heightened Def Con from 0.00932003 to 0.00932003
Heightened Def Con from 0.00932498 to 0.00932498
Heightened Def Con from 0.00932995 to 0.00932995
Heightened Def Con from 0.00933 to 0.00933
Heightened Def Con from 0.00933498 to 0.00933498
Heightened Def Con from 0.00933995 to 0.00933995
Heightened Def Con from 0.00934 to 0.00934
Heightened Def Con from 0.00934498 to 0.00934498
Heightened Def Con from 0.009349 to 0.009349
Heightened Def Con from 0.00934995 to 0.00934995
Heightened Def Con from 0.00935 to 0.00935
Heightened Def Con from 0.00935003 to 0.00935003
Heightened Def Con from 0.00935498 to 0.00935498
Heightened Def Con from 0.009359 to 0.009359
Heightened Def Con from 0.00936 to 0.00936
Heightened Def Con from 0.00936498 to 0.00936498
Heightened Def Con from 0.00936995 to 0.00936995
Heightened Def Con from 0.00937 to 0.00937
Heightened Def Con from 0.00937003 to 0.00937003
Heightened Def Con from 0.00937498 to 0.00937498
Heightened Def Con from 0.00937995 to 0.00937995
Heightened Def Con from 0.00938 to 0.00938
Heightened Def Con from 0.00938498 to 0.00938498
Heightened Def Con from 0.00938995 to 0.00938995
Heightened Def Con from 0.00939 to 0.00939
Heightened Def Con from 0.00939498 to 0.00939498
Heightened Def Con from 0.0094 to 0.0094
Heightened Def Con from 0.00940498 to 0.00940498
Heightened Def Con from 0.00941 to 0.00941
Heightened Def Con from 0.00941498 to 0.00941498
Heightened Def Con from 0.009419 to 0.009419
Heightened Def Con from 0.00941995 to 0.00941995
Heightened Def Con from 0.00942 to 0.00942
Heightened Def Con from 0.00942498 to 0.00942498
Heightened Def Con from 0.009429 to 0.009429
Heightened Def Con from 0.00942995 to 0.00942995
Heightened Def Con from 0.00943 to 0.00943
Heightened Def Con from 0.00943003 to 0.00943003
Heightened Def Con from 0.00943498 to 0.00943498
Heightened Def Con from 0.00943995 to 0.00943995
Heightened Def Con from 0.00944 to 0.00944
Heightened Def Con from 0.00944498 to 0.00944498
Heightened Def Con from 0.00944995 to 0.00944995
Heightened Def Con from 0.00945 to 0.00945
Heightened Def Con from 0.00945498 to 0.00945498
Heightened Def Con from 0.00945498 to 0.00945499
Heightened Def Con from 0.00945995 to 0.00945995
Heightened Def Con from 0.00946 to 0.00946
Heightened Def Con from 0.00946498 to 0.00946498
Heightened Def Con from 0.00946995 to 0.00946995
Heightened Def Con from 0.00947 to 0.00947
Heightened Def Con from 0.00947498 to 0.00947498
Heightened Def Con from 0.00947498 to 0.00947498
Heightened Def Con from 0.00947995 to 0.00947995
Heightened Def Con from 0.00948 to 0.00948
Heightened Def Con from 0.00948498 to 0.00948498
Heightened Def Con from 0.00948995 to 0.00948995
Heightened Def Con from 0.00949 to 0.00949
Heightened Def Con from 0.00949 to 0.00949
Heightened Def Con from 0.00949 to 0.00949
Heightened Def Con from 0.00949498 to 0.00949498
Heightened Def Con from 0.00949995 to 0.00949995
Heightened Def Con from 0.0095 to 0.0095
Heightened Def Con from 0.0095005 to 0.0095005
Heightened Def Con from 0.00950498 to 0.00950498
Heightened Def Con from 0.00950501 to 0.00950501
Heightened Def Con from 0.00951 to 0.00951
Heightened Def Con from 0.0095105 to 0.0095105
Heightened Def Con from 0.00951498 to 0.00951498
Heightened Def Con from 0.009519 to 0.009519
Heightened Def Con from 0.00952 to 0.00952
Heightened Def Con from 0.00952498 to 0.00952498
Heightened Def Con from 0.00953 to 0.00953
Heightened Def Con from 0.00953003 to 0.00953003
Heightened Def Con from 0.00953498 to 0.00953498
Heightened Def Con from 0.009539 to 0.009539
Heightened Def Con from 0.00953995 to 0.00953995
Heightened Def Con from 0.00954 to 0.00954
Heightened Def Con from 0.00954498 to 0.00954498
Heightened Def Con from 0.009549 to 0.009549
Heightened Def Con from 0.00955 to 0.00955
Heightened Def Con from 0.00955498 to 0.00955498
Heightened Def Con from 0.00955995 to 0.00955995
Heightened Def Con from 0.00956 to 0.00956
Heightened Def Con from 0.00956498 to 0.00956498
Heightened Def Con from 0.00957 to 0.00957
Heightened Def Con from 0.00957 to 0.00957
Heightened Def Con from 0.00957003 to 0.00957003
Heightened Def Con from 0.00957498 to 0.00957498
Heightened Def Con from 0.00957995 to 0.00957995
Heightened Def Con from 0.00958 to 0.00958
Heightened Def Con from 0.00958003 to 0.00958003
Heightened Def Con from 0.00958498 to 0.00958498
Heightened Def Con from 0.00959 to 0.00959
Heightened Def Con from 0.00959003 to 0.00959003
Heightened Def Con from 0.00959498 to 0.00959498
Heightened Def Con from 0.00959995 to 0.00959995
Heightened Def Con from 0.0096 to 0.0096
Heightened Def Con from 0.0096 to 0.0096
Heightened Def Con from 0.00960003 to 0.00960003
Heightened Def Con from 0.00960498 to 0.00960498
Heightened Def Con from 0.00960995 to 0.00960995
Heightened Def Con from 0.00961 to 0.00961
Heightened Def Con from 0.00961498 to 0.00961498
Heightened Def Con from 0.009619 to 0.009619
Heightened Def Con from 0.00961995 to 0.00961995
Heightened Def Con from 0.00962 to 0.00962
Heightened Def Con from 0.00962498 to 0.00962498
Heightened Def Con from 0.009629 to 0.009629
Heightened Def Con from 0.00962995 to 0.00962995
Heightened Def Con from 0.00963 to 0.00963
Heightened Def Con from 0.00963003 to 0.00963003
Heightened Def Con from 0.00963498 to 0.00963498
Heightened Def Con from 0.00963995 to 0.00963995
Heightened Def Con from 0.00964 to 0.00964
Heightened Def Con from 0.00964003 to 0.00964003
Heightened Def Con from 0.00964498 to 0.00964498
Heightened Def Con from 0.00965 to 0.00965
Heightened Def Con from 0.00965498 to 0.00965498
Heightened Def Con from 0.00965995 to 0.00965995
Heightened Def Con from 0.00966 to 0.00966
Heightened Def Con from 0.0096605 to 0.0096605
Heightened Def Con from 0.00966498 to 0.00966498
Heightened Def Con from 0.00966995 to 0.00966995
Heightened Def Con from 0.00967 to 0.00967
Heightened Def Con from 0.00967 to 0.00967
Heightened Def Con from 0.00967498 to 0.00967498
Heightened Def Con from 0.00967995 to 0.00967995
Heightened Def Con from 0.00968 to 0.00968
Heightened Def Con from 0.00968498 to 0.00968498
Heightened Def Con from 0.009689 to 0.009689
Heightened Def Con from 0.00968995 to 0.00968995
Heightened Def Con from 0.00969 to 0.00969
Heightened Def Con from 0.00969498 to 0.00969498
Heightened Def Con from 0.00969995 to 0.00969995
Heightened Def Con from 0.0097 to 0.0097
Heightened Def Con from 0.00970498 to 0.00970498
Heightened Def Con from 0.009709 to 0.009709
Heightened Def Con from 0.00970995 to 0.00970995
Heightened Def Con from 0.00971 to 0.00971
Heightened Def Con from 0.00971498 to 0.00971498
Heightened Def Con from 0.00971995 to 0.00971995
Heightened Def Con from 0.00972 to 0.00972
Heightened Def Con from 0.00972498 to 0.00972498
Heightened Def Con from 0.00972995 to 0.00972995
Heightened Def Con from 0.00973 to 0.00973
Heightened Def Con from 0.00973498 to 0.00973498
Heightened Def Con from 0.009739 to 0.009739
Heightened Def Con from 0.00974 to 0.00974
Heightened Def Con from 0.00974498 to 0.00974498
Heightened Def Con from 0.00974995 to 0.00974995
Heightened Def Con from 0.00975 to 0.00975
Heightened Def Con from 0.00975 to 0.00975
Heightened Def Con from 0.00975003 to 0.00975003
Heightened Def Con from 0.00975498 to 0.00975498
Heightened Def Con from 0.00975995 to 0.00975995
Heightened Def Con from 0.00976 to 0.00976
Heightened Def Con from 0.00976498 to 0.00976498
Heightened Def Con from 0.00977 to 0.00977
Heightened Def Con from 0.00977498 to 0.00977498
Heightened Def Con from 0.00978 to 0.00978
Heightened Def Con from 0.00978498 to 0.00978498
Heightened Def Con from 0.00978995 to 0.00978995
Heightened Def Con from 0.00979 to 0.00979
Heightened Def Con from 0.00979498 to 0.00979498
Heightened Def Con from 0.00979995 to 0.00979995
Heightened Def Con from 0.0098 to 0.0098
Heightened Def Con from 0.00980498 to 0.00980498
Heightened Def Con from 0.00980995 to 0.00980995
Heightened Def Con from 0.00981 to 0.00981
Heightened Def Con from 0.00981003 to 0.00981003
Heightened Def Con from 0.00981498 to 0.00981498
Heightened Def Con from 0.00982 to 0.00982
Heightened Def Con from 0.00982498 to 0.00982498
Heightened Def Con from 0.009829 to 0.009829
Heightened Def Con from 0.00983 to 0.00983
Heightened Def Con from 0.00983 to 0.00983001
Heightened Def Con from 0.00983003 to 0.00983003
Heightened Def Con from 0.00983498 to 0.00983498
Heightened Def Con from 0.00983995 to 0.00983995
Heightened Def Con from 0.00984 to 0.00984
Heightened Def Con from 0.00984498 to 0.00984498
Heightened Def Con from 0.00985 to 0.00985
Heightened Def Con from 0.00985498 to 0.00985498
Heightened Def Con from 0.009859 to 0.009859
Heightened Def Con from 0.00986 to 0.00986
Heightened Def Con from 0.00986498 to 0.00986498
Heightened Def Con from 0.009869 to 0.009869
Heightened Def Con from 0.00986995 to 0.00986995
Heightened Def Con from 0.00987 to 0.00987
Heightened Def Con from 0.00987498 to 0.00987498
Heightened Def Con from 0.00987995 to 0.00987995
Heightened Def Con from 0.00988 to 0.00988
Heightened Def Con from 0.00988498 to 0.00988498
Heightened Def Con from 0.00988995 to 0.00988995
Heightened Def Con from 0.00989 to 0.00989
Heightened Def Con from 0.00989498 to 0.00989498
Heightened Def Con from 0.00989995 to 0.00989995
Heightened Def Con from 0.0099 to 0.0099
Heightened Def Con from 0.00990498 to 0.00990498
Heightened Def Con from 0.00991 to 0.00991
Heightened Def Con from 0.0099105 to 0.0099105
Heightened Def Con from 0.00991498 to 0.00991498
Heightened Def Con from 0.009919 to 0.009919
Heightened Def Con from 0.00991995 to 0.00991995
Heightened Def Con from 0.00992 to 0.00992
Heightened Def Con from 0.00992498 to 0.00992498
Heightened Def Con from 0.00992995 to 0.00992995
Heightened Def Con from 0.00993 to 0.00993
Heightened Def Con from 0.00993498 to 0.00993498
Heightened Def Con from 0.00993501 to 0.00993501
Heightened Def Con from 0.00993995 to 0.00993995
Heightened Def Con from 0.00994 to 0.00994
Heightened Def Con from 0.00994 to 0.00994
Heightened Def Con from 0.00994498 to 0.00994498
Heightened Def Con from 0.00994995 to 0.00994995
Heightened Def Con from 0.00995 to 0.00995
Heightened Def Con from 0.00995498 to 0.00995498
Heightened Def Con from 0.00995501 to 0.00995501
Heightened Def Con from 0.00995995 to 0.00995995
Heightened Def Con from 0.00996 to 0.00996
Heightened Def Con from 0.00996498 to 0.00996498
Heightened Def Con from 0.00996995 to 0.00996995
Heightened Def Con from 0.00997 to 0.00997
Heightened Def Con from 0.00997498 to 0.00997498
Heightened Def Con from 0.00997501 to 0.00997501
Heightened Def Con from 0.00997995 to 0.00997995
Heightened Def Con from 0.00998 to 0.00998
Heightened Def Con from 0.00998003 to 0.00998003
Heightened Def Con from 0.00998498 to 0.00998498
Heightened Def Con from 0.00999 to 0.00999
Heightened Def Con from 0.00999003 to 0.00999003
Heightened Def Con from 0.00999498 to 0.00999498
Heightened Def Con from 0.009999 to 0.009999
Heightened Def Con from 0.00999995 to 0.00999995

Date: Sat Aug 15 19:39:42 2020
Total elapsed time: 86.100 seconds.

tnom = 27
temp = 27
method = modified trap
totiter = 5894327
traniter = 5894327
tranpoints = 1571693
accept = 1262429
rejected = 312682
matrix size = 55
fillins = 8
solver = Normal
Matrix Compiler1: 3.15 KB object code size  1.2/0.9/[0.3]
Matrix Compiler2: 4.31 KB object code size  0.6/1.4/[0.4]

